1lpz_deposited_1
  -OEChem-11071115553D

 55 58  0     0  0  0  0  0  0999 V2000
    3.7490    9.6270   25.4830 C   0  0  0  0  0  0  0  0  0  0  0  0
    9.8480    1.9100   17.8570 Cl  0  0  0  0  0  0  0  0  0  0  0  0
    4.7790    8.7510   25.2410 C   0  0  0  0  0  0  0  0  0  0  0  0
    6.0800    1.8680   21.6570 Cl  0  0  0  0  0  0  0  0  0  0  0  0
    5.1210    8.5830   23.9210 C   0  0  0  0  0  0  0  0  0  0  0  0
    4.4930    9.2340   22.8780 C   0  0  0  0  0  0  0  0  0  0  0  0
    3.4580   10.1110   23.1400 C   0  0  0  0  0  0  0  0  0  0  0  0
    3.1090   10.2860   24.4590 C   0  0  0  0  0  0  0  0  0  0  0  0
    6.0920    7.7910   23.3720 N   0  0  0  0  0  0  0  0  0  0  0  0
    6.1120    7.9060   22.0080 C   0  0  0  0  0  0  0  0  0  0  0  0
    5.1200    8.8050   21.6790 C   0  0  0  0  0  0  0  0  0  0  0  0
    2.7260   10.8550   22.0830 C   0  0  0  0  0  0  0  0  0  0  0  0
    7.0090    7.2080   21.1410 C   0  0  0  0  0  0  0  0  0  0  0  0
    6.3940    6.8220   19.9720 N   0  0  0  0  0  0  0  0  0  0  0  0
    7.1450    6.1640   18.9340 C   0  0  0  0  0  0  0  0  0  0  0  0
    7.4050    4.7240   19.2280 C   0  0  0  0  0  0  0  0  0  0  0  0
    6.9780    6.9360   24.1420 C   0  0  0  0  0  0  0  0  0  0  0  0
    8.2370    7.5690   24.6280 C   0  0  0  0  0  0  0  0  0  0  0  0
    8.8270    8.6530   24.0190 C   0  0  0  0  0  0  0  0  0  0  0  0
    9.9910    9.1740   24.5350 C   0  0  0  0  0  0  0  0  0  0  0  0
   10.5650    8.6160   25.6530 C   0  0  0  0  0  0  0  0  0  0  0  0
    9.9790    7.5300   26.2670 C   0  0  0  0  0  0  0  0  0  0  0  0
    8.8180    7.0180   25.7450 C   0  0  0  0  0  0  0  0  0  0  0  0
    8.3740    4.0640   18.5090 C   0  0  0  0  0  0  0  0  0  0  0  0
    8.6320    2.7380   18.7600 C   0  0  0  0  0  0  0  0  0  0  0  0
    7.9270    2.0630   19.7280 C   0  0  0  0  0  0  0  0  0  0  0  0
    6.9600    2.7250   20.4440 C   0  0  0  0  0  0  0  0  0  0  0  0
    6.6950    4.0520   20.1990 C   0  0  0  0  0  0  0  0  0  0  0  0
   10.5500    6.9160   27.4440 C   0  0  0  0  0  0  0  0  0  0  0  0
   11.8300    7.0910   27.7290 N   0  0  0  0  0  0  0  0  0  0  0  0
    8.1790    6.9790   21.4120 O   0  0  0  0  0  0  0  0  0  0  0  0
    9.7570    6.1880   28.2090 N   0  3  0  0  0  0  0  0  0  0  0  0
    3.4320    9.8020   26.5050 H   0  0  0  0  0  0  0  0  0  0  0  0
    5.2850    8.2300   26.0440 H   0  0  0  0  0  0  0  0  0  0  0  0
    2.3020   10.9670   24.7000 H   0  0  0  0  0  0  0  0  0  0  0  0
    4.8720    9.1200   20.6770 H   0  0  0  0  0  0  0  0  0  0  0  0
    1.6840   10.9960   22.3850 H   0  0  0  0  0  0  0  0  0  0  0  0
    3.1880   11.8330   21.9280 H   0  0  0  0  0  0  0  0  0  0  0  0
    2.7540   10.2930   21.1460 H   0  0  0  0  0  0  0  0  0  0  0  0
    5.4050    7.0010   19.8340 H   0  0  0  0  0  0  0  0  0  0  0  0
    6.5760    6.2510   18.0040 H   0  0  0  0  0  0  0  0  0  0  0  0
    8.0940    6.6930   18.8200 H   0  0  0  0  0  0  0  0  0  0  0  0
    6.3970    6.5770   24.9950 H   0  0  0  0  0  0  0  0  0  0  0  0
    7.2210    6.0850   23.5030 H   0  0  0  0  0  0  0  0  0  0  0  0
    8.3780    9.0960   23.1370 H   0  0  0  0  0  0  0  0  0  0  0  0
   10.4590   10.0280   24.0580 H   0  0  0  0  0  0  0  0  0  0  0  0
   11.4820    9.0350   26.0500 H   0  0  0  0  0  0  0  0  0  0  0  0
    8.3460    6.1660   26.2160 H   0  0  0  0  0  0  0  0  0  0  0  0
    8.9340    4.5890   17.7440 H   0  0  0  0  0  0  0  0  0  0  0  0
    8.1320    1.0170   19.9240 H   0  0  0  0  0  0  0  0  0  0  0  0
    5.9290    4.5650   20.7700 H   0  0  0  0  0  0  0  0  0  0  0  0
   12.2350    6.6620   28.5540 H   0  0  0  0  0  0  0  0  0  0  0  0
   12.4260    7.6530   27.1320 H   0  0  0  0  0  0  0  0  0  0  0  0
    8.7780    6.0620   27.9790 H   0  0  0  0  0  0  0  0  0  0  0  0
   10.1190    5.7410   29.0430 H   0  0  0  0  0  0  0  0  0  0  0  0
  1  3  2  0  0  0  0
  3  5  1  0  0  0  0
  5  6  2  0  0  0  0
  6  7  1  0  0  0  0
  7  8  2  0  0  0  0
  1  8  1  0  0  0  0
  5  9  1  0  0  0  0
  9 10  1  0  0  0  0
 10 11  2  0  0  0  0
  6 11  1  0  0  0  0
  7 12  1  0  0  0  0
 10 13  1  0  0  0  0
 13 14  1  0  0  0  0
 14 15  1  0  0  0  0
 15 16  1  0  0  0  0
  9 17  1  0  0  0  0
 17 18  1  0  0  0  0
 18 19  2  0  0  0  0
 19 20  1  0  0  0  0
 20 21  2  0  0  0  0
 21 22  1  0  0  0  0
 18 23  1  0  0  0  0
 22 23  2  0  0  0  0
 16 24  2  0  0  0  0
 24 25  1  0  0  0  0
  2 25  1  0  0  0  0
 25 26  2  0  0  0  0
 26 27  1  0  0  0  0
  4 27  1  0  0  0  0
 27 28  2  0  0  0  0
 16 28  1  0  0  0  0
 22 29  1  0  0  0  0
 29 30  1  0  0  0  0
 13 31  2  0  0  0  0
 29 32  2  0  0  0  0
  1 33  1  0  0  0  0
  3 34  1  0  0  0  0
  8 35  1  0  0  0  0
 11 36  1  0  0  0  0
 12 37  1  0  0  0  0
 12 38  1  0  0  0  0
 12 39  1  0  0  0  0
 14 40  1  0  0  0  0
 15 41  1  0  0  0  0
 15 42  1  0  0  0  0
 17 43  1  0  0  0  0
 17 44  1  0  0  0  0
 19 45  1  0  0  0  0
 20 46  1  0  0  0  0
 21 47  1  0  0  0  0
 23 48  1  0  0  0  0
 24 49  1  0  0  0  0
 26 50  1  0  0  0  0
 28 51  1  0  0  0  0
 30 52  1  0  0  0  0
 30 53  1  0  0  0  0
 32 54  1  0  0  0  0
 32 55  1  0  0  0  0
M  CHG  1  32   1
M  END
$$$$
