1fhd_deposited_1
  -OEChem-11071115553D

 39 41  0     1  0  0  0  0  0999 V2000
  -62.3780   16.9490   57.1410 C   0  0  1  0  0  0  0  0  0  0  0  0
  -61.3850   16.7610   58.2650 C   0  0  2  0  0  0  0  0  0  0  0  0
  -60.3180   17.6730   58.0530 O   0  0  0  0  0  0  0  0  0  0  0  0
  -60.8180   15.3630   58.2550 C   0  0  1  0  0  0  0  0  0  0  0  0
  -60.1160   15.1570   59.4700 O   0  0  0  0  0  0  0  0  0  0  0  0
  -61.9380   14.3560   58.1820 C   0  0  2  0  0  0  0  0  0  0  0  0
  -61.3910   13.0580   57.9990 O   0  0  0  0  0  0  0  0  0  0  0  0
  -62.8120   14.6860   57.0010 C   0  0  0  0  0  0  0  0  0  0  0  0
  -63.3950   15.9610   57.2360 O   0  0  0  0  0  0  0  0  0  0  0  0
  -65.0070   19.6460   53.9870 C   0  0  0  0  0  0  0  0  0  0  0  0
  -63.6660   19.4110   53.9050 N   0  0  0  0  0  0  0  0  0  0  0  0
  -65.7280   19.6230   55.2730 C   0  0  2  0  0  0  0  0  0  0  0  0
  -66.4760   20.8240   55.3680 O   0  0  0  0  0  0  0  0  0  0  0  0
  -64.7610   19.5490   56.4300 C   0  0  1  0  0  0  0  0  0  0  0  0
  -65.4790   19.1280   57.5740 O   0  0  0  0  0  0  0  0  0  0  0  0
  -63.6930   18.5320   56.1080 C   0  0  2  0  0  0  0  0  0  0  0  0
  -62.9140   18.2610   57.2610 O   0  0  0  0  0  0  0  0  0  0  0  0
  -62.8140   19.1200   55.0330 C   0  0  0  0  0  0  0  0  0  0  0  0
  -63.2860   19.4970   52.6030 C   0  0  0  0  0  0  0  0  0  0  0  0
  -64.4470   19.7890   51.9310 C   0  0  0  0  0  0  0  0  0  0  0  0
  -65.5080   19.8790   52.7940 N   0  0  0  0  0  0  0  0  0  0  0  0
  -61.8830   16.8550   56.1720 H   0  0  0  0  0  0  0  0  0  0  0  0
  -61.8480   16.9820   59.2300 H   0  0  0  0  0  0  0  0  0  0  0  0
  -60.4830   18.4300   58.6370 H   0  0  0  0  0  0  0  0  0  0  0  0
  -60.1240   15.2310   57.4200 H   0  0  0  0  0  0  0  0  0  0  0  0
  -59.2910   15.6670   59.4020 H   0  0  0  0  0  0  0  0  0  0  0  0
  -62.5210   14.3610   59.1060 H   0  0  0  0  0  0  0  0  0  0  0  0
  -60.9710   12.8140   58.8410 H   0  0  0  0  0  0  0  0  0  0  0  0
  -62.2270   14.7220   56.0790 H   0  0  0  0  0  0  0  0  0  0  0  0
  -63.6090   13.9470   56.8900 H   0  0  0  0  0  0  0  0  0  0  0  0
  -66.4230   18.7820   55.3030 H   0  0  0  0  0  0  0  0  0  0  0  0
  -67.1000   20.6990   56.1000 H   0  0  0  0  0  0  0  0  0  0  0  0
  -64.3200   20.5280   56.6300 H   0  0  0  0  0  0  0  0  0  0  0  0
  -64.9880   19.4630   58.3430 H   0  0  0  0  0  0  0  0  0  0  0  0
  -64.1470   17.6000   55.7620 H   0  0  0  0  0  0  0  0  0  0  0  0
  -62.3530   20.0590   55.3490 H   0  0  0  0  0  0  0  0  0  0  0  0
  -62.0490   18.4170   54.6940 H   0  0  0  0  0  0  0  0  0  0  0  0
  -62.2670   19.3490   52.2850 H   0  0  0  0  0  0  0  0  0  0  0  0
  -64.5680   19.9380   50.8680 H   0  0  0  0  0  0  0  0  0  0  0  0
  1  2  1  0  0  0  0
  2  3  1  0  0  0  0
  2  4  1  0  0  0  0
  4  5  1  0  0  0  0
  4  6  1  0  0  0  0
  6  7  1  0  0  0  0
  6  8  1  0  0  0  0
  8  9  1  0  0  0  0
  1  9  1  0  0  0  0
 10 11  1  0  0  0  0
 10 12  1  0  0  0  0
 12 13  1  0  0  0  0
 12 14  1  0  0  0  0
 14 15  1  0  0  0  0
 14 16  1  0  0  0  0
  1 17  1  0  0  0  0
 16 17  1  0  0  0  0
 16 18  1  0  0  0  0
 11 18  1  0  0  0  0
 11 19  1  0  0  0  0
 19 20  2  0  0  0  0
 20 21  1  0  0  0  0
 10 21  2  0  0  0  0
  1 22  1  0  0  0  0
  2 23  1  0  0  0  0
  3 24  1  0  0  0  0
  4 25  1  0  0  0  0
  5 26  1  0  0  0  0
  6 27  1  0  0  0  0
  7 28  1  0  0  0  0
  8 29  1  0  0  0  0
  8 30  1  0  0  0  0
 12 31  1  0  0  0  0
 13 32  1  0  0  0  0
 14 33  1  0  0  0  0
 15 34  1  0  0  0  0
 16 35  1  0  0  0  0
 18 36  1  0  0  0  0
 18 37  1  0  0  0  0
 19 38  1  0  0  0  0
 20 39  1  0  0  0  0
M  END
