1hwi_deposited_1
  -OEChem-11071115553D

 55 57  0     1  0  0  0  0  0999 V2000
   33.0400   -4.2240   -5.7860 C   0  0  0  0  0  0  0  0  0  0  0  0
   31.7310   -1.6040  -11.7780 F   0  0  0  0  0  0  0  0  0  0  0  0
   33.7800   -8.9000  -11.9130 N   0  0  0  0  0  0  0  0  0  0  0  0
   32.5810   -5.6600   -5.6110 C   0  0  0  0  0  0  0  0  0  0  0  0
   32.1140   -6.0670   -6.9910 C   0  0  2  0  0  0  0  0  0  0  0  0
   30.9250   -5.3560   -7.3140 O   0  0  0  0  0  0  0  0  0  0  0  0
   31.8080   -7.5480   -6.9560 C   0  0  0  0  0  0  0  0  0  0  0  0
   31.2330   -7.9990   -8.2790 C   0  0  2  0  0  0  0  0  0  0  0  0
   30.5960   -9.2560   -8.0730 O   0  0  0  0  0  0  0  0  0  0  0  0
   32.3320   -8.0820   -9.2810 C   0  0  0  0  0  0  0  0  0  0  0  0
   32.0980   -7.7440  -10.5520 C   0  0  0  0  0  0  0  0  0  0  0  0
   33.6070   -6.7490  -12.3090 C   0  0  0  0  0  0  0  0  0  0  0  0
   33.1030   -7.7700  -11.5390 C   0  0  0  0  0  0  0  0  0  0  0  0
   34.6060   -7.2700  -13.1660 C   0  0  0  0  0  0  0  0  0  0  0  0
   35.4190   -6.6980  -14.1250 C   0  0  0  0  0  0  0  0  0  0  0  0
   36.2990   -7.5210  -14.7870 C   0  0  0  0  0  0  0  0  0  0  0  0
   36.3720   -8.8640  -14.5070 C   0  0  0  0  0  0  0  0  0  0  0  0
   35.5710   -9.4510  -13.5530 C   0  0  0  0  0  0  0  0  0  0  0  0
   34.6940   -8.6200  -12.8970 C   0  0  0  0  0  0  0  0  0  0  0  0
   33.9970   -4.0450   -6.5910 O   0  5  0  0  0  0  0  0  0  0  0  0
   32.4080   -3.3930   -5.0780 O   0  0  0  0  0  0  0  0  0  0  0  0
   33.1220   -5.4110  -12.1760 C   0  0  0  0  0  0  0  0  0  0  0  0
   32.5360   -4.7870  -13.2510 C   0  0  0  0  0  0  0  0  0  0  0  0
   32.0670   -3.5020  -13.1160 C   0  0  0  0  0  0  0  0  0  0  0  0
   32.1900   -2.8600  -11.9080 C   0  0  0  0  0  0  0  0  0  0  0  0
   32.7770   -3.4800  -10.8320 C   0  0  0  0  0  0  0  0  0  0  0  0
   33.2440   -4.7660  -10.9680 C   0  0  0  0  0  0  0  0  0  0  0  0
   33.5710  -10.2220  -11.3600 C   0  0  0  0  0  0  0  0  0  0  0  0
   33.3100  -11.2240  -12.4580 C   0  0  0  0  0  0  0  0  0  0  0  0
   34.7730  -10.6510  -10.5540 C   0  0  0  0  0  0  0  0  0  0  0  0
   33.4160   -6.2800   -5.2770 H   0  0  0  0  0  0  0  0  0  0  0  0
   31.7680   -5.7060   -4.8820 H   0  0  0  0  0  0  0  0  0  0  0  0
   31.1170   -4.8650   -8.1560 H   0  0  0  0  0  0  0  0  0  0  0  0
   32.8740   -5.8460   -7.7440 H   0  0  0  0  0  0  0  0  0  0  0  0
   32.7230   -8.1070   -6.7430 H   0  0  0  0  0  0  0  0  0  0  0  0
   31.0930   -7.7570   -6.1560 H   0  0  0  0  0  0  0  0  0  0  0  0
   30.4740   -7.2910   -8.6210 H   0  0  0  0  0  0  0  0  0  0  0  0
   30.0540   -9.4230   -8.8630 H   0  0  0  0  0  0  0  0  0  0  0  0
   33.3210   -8.4000   -8.9670 H   0  0  0  0  0  0  0  0  0  0  0  0
   31.1060   -7.4120  -10.8400 H   0  0  0  0  0  0  0  0  0  0  0  0
   35.3700   -5.6400  -14.3550 H   0  0  0  0  0  0  0  0  0  0  0  0
   36.9510   -7.1020  -15.5450 H   0  0  0  0  0  0  0  0  0  0  0  0
   37.0820   -9.4780  -15.0510 H   0  0  0  0  0  0  0  0  0  0  0  0
   35.6380  -10.5100  -13.3410 H   0  0  0  0  0  0  0  0  0  0  0  0
   32.4450   -5.3050  -14.1990 H   0  0  0  0  0  0  0  0  0  0  0  0
   31.6030   -3.0000  -13.9570 H   0  0  0  0  0  0  0  0  0  0  0  0
   32.8670   -2.9620   -9.8840 H   0  0  0  0  0  0  0  0  0  0  0  0
   33.7080   -5.2680  -10.1270 H   0  0  0  0  0  0  0  0  0  0  0  0
   32.6950  -10.1500  -10.7130 H   0  0  0  0  0  0  0  0  0  0  0  0
   32.9800  -10.7110  -13.3730 H   0  0  0  0  0  0  0  0  0  0  0  0
   34.2220  -11.7950  -12.6810 H   0  0  0  0  0  0  0  0  0  0  0  0
   32.5250  -11.9270  -12.1480 H   0  0  0  0  0  0  0  0  0  0  0  0
   35.6670  -10.6890  -11.1820 H   0  0  0  0  0  0  0  0  0  0  0  0
   34.9520   -9.9470   -9.7380 H   0  0  0  0  0  0  0  0  0  0  0  0
   34.6070  -11.6440  -10.1270 H   0  0  0  0  0  0  0  0  0  0  0  0
  1  4  1  0  0  0  0
  4  5  1  0  0  0  0
  5  6  1  0  0  0  0
  5  7  1  0  0  0  0
  7  8  1  0  0  0  0
  8  9  1  0  0  0  0
  8 10  1  0  0  0  0
 10 11  2  0  0  0  0
  3 13  1  0  0  0  0
 12 13  2  0  0  0  0
 11 13  1  0  0  0  0
 12 14  1  0  0  0  0
 14 15  2  0  0  0  0
 15 16  1  0  0  0  0
 16 17  2  0  0  0  0
 17 18  1  0  0  0  0
  3 19  1  0  0  0  0
 14 19  1  0  0  0  0
 18 19  2  0  0  0  0
  1 20  1  0  0  0  0
  1 21  2  0  0  0  0
 12 22  1  0  0  0  0
 22 23  2  0  0  0  0
 23 24  1  0  0  0  0
 24 25  2  0  0  0  0
  2 25  1  0  0  0  0
 25 26  1  0  0  0  0
 22 27  1  0  0  0  0
 26 27  2  0  0  0  0
  3 28  1  0  0  0  0
 28 29  1  0  0  0  0
 28 30  1  0  0  0  0
  4 31  1  0  0  0  0
  4 32  1  0  0  0  0
  6 33  1  0  0  0  0
  5 34  1  0  0  0  0
  7 35  1  0  0  0  0
  7 36  1  0  0  0  0
  8 37  1  0  0  0  0
  9 38  1  0  0  0  0
 10 39  1  0  0  0  0
 11 40  1  0  0  0  0
 15 41  1  0  0  0  0
 16 42  1  0  0  0  0
 17 43  1  0  0  0  0
 18 44  1  0  0  0  0
 23 45  1  0  0  0  0
 24 46  1  0  0  0  0
 26 47  1  0  0  0  0
 27 48  1  0  0  0  0
 28 49  1  0  0  0  0
 29 50  1  0  0  0  0
 29 51  1  0  0  0  0
 29 52  1  0  0  0  0
 30 53  1  0  0  0  0
 30 54  1  0  0  0  0
 30 55  1  0  0  0  0
M  CHG  1  20  -1
M  END
$$$$
1hwi_deposited_2
  -OEChem-11071115553D

 55 57  0     1  0  0  0  0  0999 V2000
   22.3040  -17.7950   16.3170 C   0  0  0  0  0  0  0  0  0  0  0  0
   22.9810  -22.5690   20.5510 F   0  0  0  0  0  0  0  0  0  0  0  0
   18.9100  -24.5290   14.4690 N   0  0  0  0  0  0  0  0  0  0  0  0
   22.2910  -18.2260   14.8610 C   0  0  0  0  0  0  0  0  0  0  0  0
   22.3450  -19.7380   14.8780 C   0  0  2  0  0  0  0  0  0  0  0  0
   23.5970  -20.1670   15.3950 O   0  0  0  0  0  0  0  0  0  0  0  0
   22.2400  -20.2020   13.4400 C   0  0  0  0  0  0  0  0  0  0  0  0
   22.2590  -21.7100   13.3300 C   0  0  2  0  0  0  0  0  0  0  0  0
   22.3620  -22.0300   11.9490 O   0  0  0  0  0  0  0  0  0  0  0  0
   21.0080  -22.2910   13.8930 C   0  0  0  0  0  0  0  0  0  0  0  0
   21.0770  -23.4060   14.6190 C   0  0  0  0  0  0  0  0  0  0  0  0
   19.6500  -24.2680   16.5210 C   0  0  0  0  0  0  0  0  0  0  0  0
   19.9500  -24.0210   15.2030 C   0  0  0  0  0  0  0  0  0  0  0  0
   18.4010  -24.9270   16.5890 C   0  0  0  0  0  0  0  0  0  0  0  0
   17.6460  -25.3940   17.6470 C   0  0  0  0  0  0  0  0  0  0  0  0
   16.4530  -26.0020   17.3450 C   0  0  0  0  0  0  0  0  0  0  0  0
   16.0230  -26.1410   16.0460 C   0  0  0  0  0  0  0  0  0  0  0  0
   16.7640  -25.6840   14.9820 C   0  0  0  0  0  0  0  0  0  0  0  0
   17.9580  -25.0770   15.2900 C   0  0  0  0  0  0  0  0  0  0  0  0
   21.2710  -18.0760   16.9830 O   0  0  0  0  0  0  0  0  0  0  0  0
   23.3470  -17.1800   16.6730 O   0  5  0  0  0  0  0  0  0  0  0  0
   20.5150  -23.8470   17.5790 C   0  0  0  0  0  0  0  0  0  0  0  0
   20.9400  -24.7400   18.5340 C   0  0  0  0  0  0  0  0  0  0  0  0
   21.7740  -24.3080   19.5380 C   0  0  0  0  0  0  0  0  0  0  0  0
   22.1670  -22.9910   19.5720 C   0  0  0  0  0  0  0  0  0  0  0  0
   21.7430  -22.0950   18.6190 C   0  0  0  0  0  0  0  0  0  0  0  0
   20.9100  -22.5290   17.6170 C   0  0  0  0  0  0  0  0  0  0  0  0
   18.8100  -24.4710   13.0230 C   0  0  0  0  0  0  0  0  0  0  0  0
   18.7040  -25.8500   12.4170 C   0  0  0  0  0  0  0  0  0  0  0  0
   17.6080  -23.6430   12.6330 C   0  0  0  0  0  0  0  0  0  0  0  0
   21.3740  -17.8730   14.3830 H   0  0  0  0  0  0  0  0  0  0  0  0
   23.1570  -17.8040   14.3460 H   0  0  0  0  0  0  0  0  0  0  0  0
   23.3940  -20.5740   16.3060 H   0  0  0  0  0  0  0  0  0  0  0  0
   21.5410  -20.1570   15.4880 H   0  0  0  0  0  0  0  0  0  0  0  0
   21.3130  -19.8210   13.0040 H   0  0  0  0  0  0  0  0  0  0  0  0
   23.0710  -19.7870   12.8640 H   0  0  0  0  0  0  0  0  0  0  0  0
   23.1320  -22.1200   13.8450 H   0  0  0  0  0  0  0  0  0  0  0  0
   23.1040  -22.6750   11.8690 H   0  0  0  0  0  0  0  0  0  0  0  0
   20.0570  -21.8030   13.7140 H   0  0  0  0  0  0  0  0  0  0  0  0
   22.0450  -23.8640   14.7840 H   0  0  0  0  0  0  0  0  0  0  0  0
   17.9760  -25.2900   18.6750 H   0  0  0  0  0  0  0  0  0  0  0  0
   15.8330  -26.3800   18.1500 H   0  0  0  0  0  0  0  0  0  0  0  0
   15.0730  -26.6260   15.8560 H   0  0  0  0  0  0  0  0  0  0  0  0
   16.4130  -25.7980   13.9640 H   0  0  0  0  0  0  0  0  0  0  0  0
   20.6220  -25.7760   18.4950 H   0  0  0  0  0  0  0  0  0  0  0  0
   22.1180  -25.0000   20.2980 H   0  0  0  0  0  0  0  0  0  0  0  0
   22.0610  -21.0600   18.6590 H   0  0  0  0  0  0  0  0  0  0  0  0
   20.5680  -21.8340   16.8590 H   0  0  0  0  0  0  0  0  0  0  0  0
   19.7230  -23.9860   12.6720 H   0  0  0  0  0  0  0  0  0  0  0  0
   19.0850  -25.8370   11.3770 H   0  0  0  0  0  0  0  0  0  0  0  0
   19.3040  -26.5710   13.0060 H   0  0  0  0  0  0  0  0  0  0  0  0
   17.6510  -26.1860   12.4050 H   0  0  0  0  0  0  0  0  0  0  0  0
   17.4740  -22.8120   13.3410 H   0  0  0  0  0  0  0  0  0  0  0  0
   17.7480  -23.2260   11.6260 H   0  0  0  0  0  0  0  0  0  0  0  0
   16.6960  -24.2560   12.6340 H   0  0  0  0  0  0  0  0  0  0  0  0
  1  4  1  0  0  0  0
  4  5  1  0  0  0  0
  5  6  1  0  0  0  0
  5  7  1  0  0  0  0
  7  8  1  0  0  0  0
  8  9  1  0  0  0  0
  8 10  1  0  0  0  0
 10 11  2  0  0  0  0
 12 13  2  0  0  0  0
 11 13  1  0  0  0  0
  3 13  1  0  0  0  0
 12 14  1  0  0  0  0
 14 15  2  0  0  0  0
 15 16  1  0  0  0  0
 16 17  2  0  0  0  0
 17 18  1  0  0  0  0
 18 19  2  0  0  0  0
 14 19  1  0  0  0  0
  3 19  1  0  0  0  0
  1 20  2  0  0  0  0
  1 21  1  0  0  0  0
 12 22  1  0  0  0  0
 22 23  2  0  0  0  0
 23 24  1  0  0  0  0
 24 25  2  0  0  0  0
  2 25  1  0  0  0  0
 25 26  1  0  0  0  0
 22 27  1  0  0  0  0
 26 27  2  0  0  0  0
  3 28  1  0  0  0  0
 28 29  1  0  0  0  0
 28 30  1  0  0  0  0
  4 31  1  0  0  0  0
  4 32  1  0  0  0  0
  6 33  1  0  0  0  0
  5 34  1  0  0  0  0
  7 35  1  0  0  0  0
  7 36  1  0  0  0  0
  8 37  1  0  0  0  0
  9 38  1  0  0  0  0
 10 39  1  0  0  0  0
 11 40  1  0  0  0  0
 15 41  1  0  0  0  0
 16 42  1  0  0  0  0
 17 43  1  0  0  0  0
 18 44  1  0  0  0  0
 23 45  1  0  0  0  0
 24 46  1  0  0  0  0
 26 47  1  0  0  0  0
 27 48  1  0  0  0  0
 28 49  1  0  0  0  0
 29 50  1  0  0  0  0
 29 51  1  0  0  0  0
 29 52  1  0  0  0  0
 30 53  1  0  0  0  0
 30 54  1  0  0  0  0
 30 55  1  0  0  0  0
M  CHG  1  21  -1
M  END
$$$$
1hwi_deposited_3
  -OEChem-11071115553D

 55 57  0     1  0  0  0  0  0999 V2000
   46.5130    9.1710   19.3860 C   0  0  0  0  0  0  0  0  0  0  0  0
   51.9370    7.4620   22.1350 F   0  0  0  0  0  0  0  0  0  0  0  0
   50.6170   14.9210   22.3500 N   0  0  0  0  0  0  0  0  0  0  0  0
   45.6870   10.2400   20.0750 C   0  0  0  0  0  0  0  0  0  0  0  0
   46.5810   10.7490   21.1810 C   0  0  2  0  0  0  0  0  0  0  0  0
   46.6260    9.7830   22.2150 O   0  0  0  0  0  0  0  0  0  0  0  0
   45.9650   12.0070   21.7470 C   0  0  0  0  0  0  0  0  0  0  0  0
   46.8040   12.5510   22.8780 C   0  0  2  0  0  0  0  0  0  0  0  0
   46.0070   13.4750   23.6050 O   0  0  0  0  0  0  0  0  0  0  0  0
   48.0140   13.2320   22.3340 C   0  0  0  0  0  0  0  0  0  0  0  0
   49.1960   13.0000   22.9060 C   0  0  0  0  0  0  0  0  0  0  0  0
   51.5920   12.9620   22.1410 C   0  0  0  0  0  0  0  0  0  0  0  0
   50.4100   13.5730   22.4780 C   0  0  0  0  0  0  0  0  0  0  0  0
   52.5310   13.9610   21.7910 C   0  0  0  0  0  0  0  0  0  0  0  0
   53.8480   13.9120   21.3780 C   0  0  0  0  0  0  0  0  0  0  0  0
   54.4730   15.1080   21.1190 C   0  0  0  0  0  0  0  0  0  0  0  0
   53.8220   16.3100   21.2620 C   0  0  0  0  0  0  0  0  0  0  0  0
   52.5130   16.3800   21.6740 C   0  0  0  0  0  0  0  0  0  0  0  0
   51.8960   15.1780   21.9310 C   0  0  0  0  0  0  0  0  0  0  0  0
   47.5030    9.5850   18.7220 O   0  5  0  0  0  0  0  0  0  0  0  0
   46.0870    7.9950   19.5460 O   0  0  0  0  0  0  0  0  0  0  0  0
   51.7170   11.5330   22.1570 C   0  0  0  0  0  0  0  0  0  0  0  0
   52.7330   10.9130   22.8430 C   0  0  0  0  0  0  0  0  0  0  0  0
   52.8110    9.5390   22.8390 C   0  0  0  0  0  0  0  0  0  0  0  0
   51.8750    8.8040   22.1490 C   0  0  0  0  0  0  0  0  0  0  0  0
   50.8620    9.4230   21.4610 C   0  0  0  0  0  0  0  0  0  0  0  0
   50.7860   10.7930   21.4690 C   0  0  0  0  0  0  0  0  0  0  0  0
   49.6340   15.9590   22.6050 C   0  0  0  0  0  0  0  0  0  0  0  0
   50.1370   16.9290   23.6450 C   0  0  0  0  0  0  0  0  0  0  0  0
   49.3120   16.6970   21.3290 C   0  0  0  0  0  0  0  0  0  0  0  0
   45.4420   11.0340   19.3660 H   0  0  0  0  0  0  0  0  0  0  0  0
   44.7680    9.8000   20.4730 H   0  0  0  0  0  0  0  0  0  0  0  0
   47.4860    9.2750   22.0830 H   0  0  0  0  0  0  0  0  0  0  0  0
   47.5950   10.9370   20.8190 H   0  0  0  0  0  0  0  0  0  0  0  0
   45.8830   12.7600   20.9600 H   0  0  0  0  0  0  0  0  0  0  0  0
   44.9570   11.7900   22.1110 H   0  0  0  0  0  0  0  0  0  0  0  0
   47.0970   11.7460   23.5570 H   0  0  0  0  0  0  0  0  0  0  0  0
   46.3060   13.4300   24.5290 H   0  0  0  0  0  0  0  0  0  0  0  0
   47.9240   13.8990   21.4820 H   0  0  0  0  0  0  0  0  0  0  0  0
   49.2400   12.3200   23.7520 H   0  0  0  0  0  0  0  0  0  0  0  0
   54.3750   12.9710   21.2600 H   0  0  0  0  0  0  0  0  0  0  0  0
   55.5070   15.1040   20.7910 H   0  0  0  0  0  0  0  0  0  0  0  0
   54.3560   17.2280   21.0450 H   0  0  0  0  0  0  0  0  0  0  0  0
   52.0090   17.3320   21.7830 H   0  0  0  0  0  0  0  0  0  0  0  0
   53.4650   11.5010   23.3850 H   0  0  0  0  0  0  0  0  0  0  0  0
   53.6080    9.0380   23.3780 H   0  0  0  0  0  0  0  0  0  0  0  0
   50.1280    8.8360   20.9210 H   0  0  0  0  0  0  0  0  0  0  0  0
   49.9880   11.2900   20.9300 H   0  0  0  0  0  0  0  0  0  0  0  0
   48.7410   15.4530   22.9780 H   0  0  0  0  0  0  0  0  0  0  0  0
   50.8940   16.4470   24.2810 H   0  0  0  0  0  0  0  0  0  0  0  0
   50.5860   17.8120   23.1680 H   0  0  0  0  0  0  0  0  0  0  0  0
   49.3040   17.2630   24.2830 H   0  0  0  0  0  0  0  0  0  0  0  0
   48.4210   17.3190   21.4670 H   0  0  0  0  0  0  0  0  0  0  0  0
   50.1430   17.3420   21.0310 H   0  0  0  0  0  0  0  0  0  0  0  0
   49.1170   15.9850   20.5200 H   0  0  0  0  0  0  0  0  0  0  0  0
  1  4  1  0  0  0  0
  4  5  1  0  0  0  0
  5  6  1  0  0  0  0
  5  7  1  0  0  0  0
  7  8  1  0  0  0  0
  8  9  1  0  0  0  0
  8 10  1  0  0  0  0
 10 11  2  0  0  0  0
 12 13  2  0  0  0  0
 11 13  1  0  0  0  0
  3 13  1  0  0  0  0
 12 14  1  0  0  0  0
 14 15  2  0  0  0  0
 15 16  1  0  0  0  0
 16 17  2  0  0  0  0
 17 18  1  0  0  0  0
 18 19  2  0  0  0  0
 14 19  1  0  0  0  0
  3 19  1  0  0  0  0
  1 20  1  0  0  0  0
  1 21  2  0  0  0  0
 12 22  1  0  0  0  0
 22 23  2  0  0  0  0
 23 24  1  0  0  0  0
  2 25  1  0  0  0  0
 24 25  2  0  0  0  0
 25 26  1  0  0  0  0
 26 27  2  0  0  0  0
 22 27  1  0  0  0  0
  3 28  1  0  0  0  0
 28 29  1  0  0  0  0
 28 30  1  0  0  0  0
  4 31  1  0  0  0  0
  4 32  1  0  0  0  0
  6 33  1  0  0  0  0
  5 34  1  0  0  0  0
  7 35  1  0  0  0  0
  7 36  1  0  0  0  0
  8 37  1  0  0  0  0
  9 38  1  0  0  0  0
 10 39  1  0  0  0  0
 11 40  1  0  0  0  0
 15 41  1  0  0  0  0
 16 42  1  0  0  0  0
 17 43  1  0  0  0  0
 18 44  1  0  0  0  0
 23 45  1  0  0  0  0
 24 46  1  0  0  0  0
 26 47  1  0  0  0  0
 27 48  1  0  0  0  0
 28 49  1  0  0  0  0
 29 50  1  0  0  0  0
 29 51  1  0  0  0  0
 29 52  1  0  0  0  0
 30 53  1  0  0  0  0
 30 54  1  0  0  0  0
 30 55  1  0  0  0  0
M  CHG  1  20  -1
M  END
$$$$
1hwi_deposited_4
  -OEChem-11071115553D

 55 57  0     1  0  0  0  0  0999 V2000
   18.6920   12.8740   22.9960 C   0  0  0  0  0  0  0  0  0  0  0  0
   13.8920   16.5250   21.5920 F   0  0  0  0  0  0  0  0  0  0  0  0
   17.1440   18.4040   28.1540 N   0  0  0  0  0  0  0  0  0  0  0  0
   19.9120   13.5800   23.5690 C   0  0  0  0  0  0  0  0  0  0  0  0
   19.4680   15.0110   23.8220 C   0  0  2  0  0  0  0  0  0  0  0  0
   19.3850   15.7170   22.5930 O   0  0  0  0  0  0  0  0  0  0  0  0
   20.5260   15.7000   24.6540 C   0  0  0  0  0  0  0  0  0  0  0  0
   20.1250   17.1260   24.9540 C   0  0  2  0  0  0  0  0  0  0  0  0
   21.2780   17.8000   25.4300 O   0  0  0  0  0  0  0  0  0  0  0  0
   19.0400   17.1330   25.9750 C   0  0  0  0  0  0  0  0  0  0  0  0
   18.0920   18.0660   25.9170 C   0  0  0  0  0  0  0  0  0  0  0  0
   15.6760   17.9470   26.5890 C   0  0  0  0  0  0  0  0  0  0  0  0
   17.0170   18.1240   26.8210 C   0  0  0  0  0  0  0  0  0  0  0  0
   14.9760   18.1140   27.8050 C   0  0  0  0  0  0  0  0  0  0  0  0
   13.6380   18.0460   28.1340 C   0  0  0  0  0  0  0  0  0  0  0  0
   13.2990   18.2690   29.4470 C   0  0  0  0  0  0  0  0  0  0  0  0
   14.2500   18.5500   30.3970 C   0  0  0  0  0  0  0  0  0  0  0  0
   15.5880   18.6230   30.0850 C   0  0  0  0  0  0  0  0  0  0  0  0
   15.9190   18.3980   28.7700 C   0  0  0  0  0  0  0  0  0  0  0  0
   17.7400   12.6750   23.8020 O   0  5  0  0  0  0  0  0  0  0  0  0
   18.7910   12.5460   21.7810 O   0  0  0  0  0  0  0  0  0  0  0  0
   15.1910   17.6130   25.2870 C   0  0  0  0  0  0  0  0  0  0  0  0
   14.2490   18.3880   24.6570 C   0  0  0  0  0  0  0  0  0  0  0  0
   13.8090   18.0200   23.4080 C   0  0  0  0  0  0  0  0  0  0  0  0
   14.3150   16.8890   22.8120 C   0  0  0  0  0  0  0  0  0  0  0  0
   15.2570   16.1160   23.4410 C   0  0  0  0  0  0  0  0  0  0  0  0
   15.6950   16.4830   24.6880 C   0  0  0  0  0  0  0  0  0  0  0  0
   18.3970   18.6600   28.8390 C   0  0  0  0  0  0  0  0  0  0  0  0
   18.3530   19.9920   29.5480 C   0  0  0  0  0  0  0  0  0  0  0  0
   18.6850   17.5660   29.8360 C   0  0  0  0  0  0  0  0  0  0  0  0
   20.2160   13.0920   24.4990 H   0  0  0  0  0  0  0  0  0  0  0  0
   20.7330   13.5400   22.8490 H   0  0  0  0  0  0  0  0  0  0  0  0
   18.3930   15.7220   22.3430 H   0  0  0  0  0  0  0  0  0  0  0  0
   18.4950   15.0410   24.3190 H   0  0  0  0  0  0  0  0  0  0  0  0
   20.6690   15.1560   25.5910 H   0  0  0  0  0  0  0  0  0  0  0  0
   21.4770   15.6940   24.1150 H   0  0  0  0  0  0  0  0  0  0  0  0
   19.7860   17.6270   24.0430 H   0  0  0  0  0  0  0  0  0  0  0  0
   21.4480   18.5490   24.7850 H   0  0  0  0  0  0  0  0  0  0  0  0
   19.0230   16.3710   26.7480 H   0  0  0  0  0  0  0  0  0  0  0  0
   18.1260   18.8040   25.1220 H   0  0  0  0  0  0  0  0  0  0  0  0
   12.8780   17.8250   27.3930 H   0  0  0  0  0  0  0  0  0  0  0  0
   12.2560   18.2210   29.7400 H   0  0  0  0  0  0  0  0  0  0  0  0
   13.9380   18.7180   31.4210 H   0  0  0  0  0  0  0  0  0  0  0  0
   16.3290   18.8450   30.8430 H   0  0  0  0  0  0  0  0  0  0  0  0
   13.8570   19.2770   25.1380 H   0  0  0  0  0  0  0  0  0  0  0  0
   13.0660   18.6190   22.8940 H   0  0  0  0  0  0  0  0  0  0  0  0
   15.6490   15.2270   22.9600 H   0  0  0  0  0  0  0  0  0  0  0  0
   16.4380   15.8810   25.1990 H   0  0  0  0  0  0  0  0  0  0  0  0
   19.1710   18.6760   28.0680 H   0  0  0  0  0  0  0  0  0  0  0  0
   18.1330   19.8540   30.6140 H   0  0  0  0  0  0  0  0  0  0  0  0
   19.3230   20.4980   29.4540 H   0  0  0  0  0  0  0  0  0  0  0  0
   17.5800   20.6340   29.1070 H   0  0  0  0  0  0  0  0  0  0  0  0
   18.5230   16.5860   29.3800 H   0  0  0  0  0  0  0  0  0  0  0  0
   19.7240   17.6260   30.1720 H   0  0  0  0  0  0  0  0  0  0  0  0
   18.0330   17.6550   30.7090 H   0  0  0  0  0  0  0  0  0  0  0  0
  1  4  1  0  0  0  0
  4  5  1  0  0  0  0
  5  6  1  0  0  0  0
  5  7  1  0  0  0  0
  7  8  1  0  0  0  0
  8  9  1  0  0  0  0
  8 10  1  0  0  0  0
 10 11  2  0  0  0  0
 12 13  2  0  0  0  0
  3 13  1  0  0  0  0
 11 13  1  0  0  0  0
 12 14  1  0  0  0  0
 14 15  2  0  0  0  0
 15 16  1  0  0  0  0
 16 17  2  0  0  0  0
 17 18  1  0  0  0  0
 18 19  2  0  0  0  0
 14 19  1  0  0  0  0
  3 19  1  0  0  0  0
  1 20  1  0  0  0  0
  1 21  2  0  0  0  0
 12 22  1  0  0  0  0
 22 23  2  0  0  0  0
 23 24  1  0  0  0  0
  2 25  1  0  0  0  0
 24 25  2  0  0  0  0
 25 26  1  0  0  0  0
 26 27  2  0  0  0  0
 22 27  1  0  0  0  0
  3 28  1  0  0  0  0
 28 29  1  0  0  0  0
 28 30  1  0  0  0  0
  4 31  1  0  0  0  0
  4 32  1  0  0  0  0
  6 33  1  0  0  0  0
  5 34  1  0  0  0  0
  7 35  1  0  0  0  0
  7 36  1  0  0  0  0
  8 37  1  0  0  0  0
  9 38  1  0  0  0  0
 10 39  1  0  0  0  0
 11 40  1  0  0  0  0
 15 41  1  0  0  0  0
 16 42  1  0  0  0  0
 17 43  1  0  0  0  0
 18 44  1  0  0  0  0
 23 45  1  0  0  0  0
 24 46  1  0  0  0  0
 26 47  1  0  0  0  0
 27 48  1  0  0  0  0
 28 49  1  0  0  0  0
 29 50  1  0  0  0  0
 29 51  1  0  0  0  0
 29 52  1  0  0  0  0
 30 53  1  0  0  0  0
 30 54  1  0  0  0  0
 30 55  1  0  0  0  0
M  CHG  1  20  -1
M  END
$$$$
