1n46_deposited_1
  -OEChem-11071115553D

 48 50  0     0  0  0  0  0  0999 V2000
   20.0760    7.4550    2.6890 C   0  0  0  0  0  0  0  0  0  0  0  0
   18.9740    6.6710    2.4380 C   0  0  0  0  0  0  0  0  0  0  0  0
   18.6490    5.6380    3.2920 C   0  0  0  0  0  0  0  0  0  0  0  0
   20.1140    3.4110    5.3490 N   0  0  0  0  0  0  0  0  0  0  0  0
   19.4330    5.3960    4.3960 C   0  0  0  0  0  0  0  0  0  0  0  0
   20.5330    6.1840    4.6450 C   0  0  0  0  0  0  0  0  0  0  0  0
   19.1570    4.3630    5.3070 N   0  0  0  0  0  0  0  0  0  0  0  0
   20.8550    7.2180    3.7980 C   0  0  0  0  0  0  0  0  0  0  0  0
   17.9970    3.4310    7.1140 N   0  0  0  0  0  0  0  0  0  0  0  0
   22.0420    8.0490    4.0970 C   0  0  0  0  0  0  0  0  0  0  0  0
   23.3190   11.8240   -0.6730 C   0  0  0  0  0  0  0  0  0  0  0  0
   18.9550    1.5310    8.0720 O   0  0  0  0  0  0  0  0  0  0  0  0
   25.1250   10.8070    0.6470 C   0  0  0  0  0  0  0  0  0  0  0  0
   17.2160    5.2770    6.0670 O   0  0  0  0  0  0  0  0  0  0  0  0
   18.9290    2.4390    7.2520 C   0  0  0  0  0  0  0  0  0  0  0  0
   18.0690    4.4080    6.1490 C   0  0  0  0  0  0  0  0  0  0  0  0
   20.0310    2.5020    6.2620 C   0  0  0  0  0  0  0  0  0  0  0  0
   18.1350    6.9440    1.2400 C   0  0  0  0  0  0  0  0  0  0  0  0
   20.3660    8.5000    1.8220 O   0  0  0  0  0  0  0  0  0  0  0  0
   21.4390    8.3700    0.9580 C   0  0  0  0  0  0  0  0  0  0  0  0
   22.2070    9.4910    0.7000 C   0  0  0  0  0  0  0  0  0  0  0  0
   23.2790    9.4080   -0.1640 C   0  0  0  0  0  0  0  0  0  0  0  0
   24.1540   10.5810   -0.4840 C   0  0  0  0  0  0  0  0  0  0  0  0
   23.5500    8.1940   -0.7460 C   0  0  0  0  0  0  0  0  0  0  0  0
   24.6180    8.0900   -1.6090 O   0  0  0  0  0  0  0  0  0  0  0  0
   22.7860    7.0780   -0.4930 C   0  0  0  0  0  0  0  0  0  0  0  0
   21.7170    7.1620    0.3650 C   0  0  0  0  0  0  0  0  0  0  0  0
   20.7910    1.7110    6.3490 H   0  0  0  0  0  0  0  0  0  0  0  0
   17.6930    7.9410    1.3180 H   0  0  0  0  0  0  0  0  0  0  0  0
   18.7500    6.8940    0.3380 H   0  0  0  0  0  0  0  0  0  0  0  0
   17.3350    6.2030    1.1690 H   0  0  0  0  0  0  0  0  0  0  0  0
   21.9630   10.4330    1.1780 H   0  0  0  0  0  0  0  0  0  0  0  0
   24.7070   10.3710   -1.4030 H   0  0  0  0  0  0  0  0  0  0  0  0
   25.0350    7.2360   -1.4040 H   0  0  0  0  0  0  0  0  0  0  0  0
   23.0300    6.1380   -0.9710 H   0  0  0  0  0  0  0  0  0  0  0  0
   21.1080    6.2890    0.5710 H   0  0  0  0  0  0  0  0  0  0  0  0
   17.7840    5.0180    3.0920 H   0  0  0  0  0  0  0  0  0  0  0  0
   21.1460    5.9910    5.5170 H   0  0  0  0  0  0  0  0  0  0  0  0
   22.8490    7.8040    3.4030 H   0  0  0  0  0  0  0  0  0  0  0  0
   21.7890    9.1080    3.9920 H   0  0  0  0  0  0  0  0  0  0  0  0
   22.3800    7.8630    5.1200 H   0  0  0  0  0  0  0  0  0  0  0  0
   23.9140   12.6080   -1.1540 H   0  0  0  0  0  0  0  0  0  0  0  0
   22.4510   11.6070   -1.3050 H   0  0  0  0  0  0  0  0  0  0  0  0
   22.9650   12.1970    0.2940 H   0  0  0  0  0  0  0  0  0  0  0  0
   25.5020   11.8430    0.6230 H   0  0  0  0  0  0  0  0  0  0  0  0
   24.6290   10.6290    1.6160 H   0  0  0  0  0  0  0  0  0  0  0  0
   25.9810   10.1140    0.5560 H   0  0  0  0  0  0  0  0  0  0  0  0
   17.2160    3.4470    7.7590 H   0  0  0  0  0  0  0  0  0  0  0  0
  1  2  2  0  0  0  0
  2  3  1  0  0  0  0
  3  5  2  0  0  0  0
  5  6  1  0  0  0  0
  4  7  1  0  0  0  0
  5  7  1  0  0  0  0
  1  8  1  0  0  0  0
  6  8  2  0  0  0  0
  8 10  1  0  0  0  0
 12 15  2  0  0  0  0
  9 15  1  0  0  0  0
 14 16  2  0  0  0  0
  9 16  1  0  0  0  0
  7 16  1  0  0  0  0
 15 17  1  0  0  0  0
  4 17  2  0  0  0  0
  2 18  1  0  0  0  0
  1 19  1  0  0  0  0
 19 20  1  0  0  0  0
 20 21  2  0  0  0  0
 21 22  1  0  0  0  0
 22 23  1  0  0  0  0
 13 23  1  0  0  0  0
 11 23  1  0  0  0  0
 22 24  2  0  0  0  0
 24 25  1  0  0  0  0
 24 26  1  0  0  0  0
 20 27  1  0  0  0  0
 26 27  2  0  0  0  0
 17 28  1  0  0  0  0
 18 29  1  0  0  0  0
 18 30  1  0  0  0  0
 18 31  1  0  0  0  0
 21 32  1  0  0  0  0
 23 33  1  0  0  0  0
 25 34  1  0  0  0  0
 26 35  1  0  0  0  0
 27 36  1  0  0  0  0
  3 37  1  0  0  0  0
  6 38  1  0  0  0  0
 10 39  1  0  0  0  0
 10 40  1  0  0  0  0
 10 41  1  0  0  0  0
 11 42  1  0  0  0  0
 11 43  1  0  0  0  0
 11 44  1  0  0  0  0
 13 45  1  0  0  0  0
 13 46  1  0  0  0  0
 13 47  1  0  0  0  0
  9 48  1  0  0  0  0
M  END
$$$$
1n46_deposited_2
  -OEChem-11071115553D

 48 50  0     0  0  0  0  0  0999 V2000
    6.0170  -20.5880  -27.8020 C   0  0  0  0  0  0  0  0  0  0  0  0
    7.0660  -19.6940  -27.8290 C   0  0  0  0  0  0  0  0  0  0  0  0
    7.0930  -18.6460  -26.9340 C   0  0  0  0  0  0  0  0  0  0  0  0
    5.1080  -16.5310  -25.3000 N   0  0  0  0  0  0  0  0  0  0  0  0
    6.0760  -18.5030  -26.0180 C   0  0  0  0  0  0  0  0  0  0  0  0
    5.0360  -19.3980  -25.9920 C   0  0  0  0  0  0  0  0  0  0  0  0
    6.0590  -17.4660  -25.0790 N   0  0  0  0  0  0  0  0  0  0  0  0
    5.0060  -20.4440  -26.8820 C   0  0  0  0  0  0  0  0  0  0  0  0
    6.7150  -16.5210  -23.0530 N   0  0  0  0  0  0  0  0  0  0  0  0
    3.8770  -21.4070  -26.8390 C   0  0  0  0  0  0  0  0  0  0  0  0
    3.7150  -24.8150  -32.0400 C   0  0  0  0  0  0  0  0  0  0  0  0
    5.5490  -14.6310  -22.3820 O   0  0  0  0  0  0  0  0  0  0  0  0
    1.6730  -23.7480  -31.2170 C   0  0  0  0  0  0  0  0  0  0  0  0
    7.7540  -18.3650  -23.8380 O   0  0  0  0  0  0  0  0  0  0  0  0
    5.7760  -15.5410  -23.1670 C   0  0  0  0  0  0  0  0  0  0  0  0
    6.8990  -17.5020  -23.9880 C   0  0  0  0  0  0  0  0  0  0  0  0
    4.9550  -15.6170  -24.4030 C   0  0  0  0  0  0  0  0  0  0  0  0
    8.1710  -19.8400  -28.8180 C   0  0  0  0  0  0  0  0  0  0  0  0
    5.9720  -21.6590  -28.6910 O   0  0  0  0  0  0  0  0  0  0  0  0
    5.2100  -21.4840  -29.8330 C   0  0  0  0  0  0  0  0  0  0  0  0
    4.4850  -22.5560  -30.3180 C   0  0  0  0  0  0  0  0  0  0  0  0
    3.7270  -22.4150  -31.4620 C   0  0  0  0  0  0  0  0  0  0  0  0
    2.9190  -23.5340  -32.0390 C   0  0  0  0  0  0  0  0  0  0  0  0
    3.7200  -21.1920  -32.0880 C   0  0  0  0  0  0  0  0  0  0  0  0
    2.9720  -21.0180  -33.2320 O   0  0  0  0  0  0  0  0  0  0  0  0
    4.4390  -20.1250  -31.6110 C   0  0  0  0  0  0  0  0  0  0  0  0
    5.1970  -20.2690  -30.4750 C   0  0  0  0  0  0  0  0  0  0  0  0
    4.1940  -14.8300  -24.5130 H   0  0  0  0  0  0  0  0  0  0  0  0
    9.1130  -19.5190  -28.3670 H   0  0  0  0  0  0  0  0  0  0  0  0
    8.2610  -20.8850  -29.1260 H   0  0  0  0  0  0  0  0  0  0  0  0
    7.9680  -19.2230  -29.6960 H   0  0  0  0  0  0  0  0  0  0  0  0
    4.5160  -23.5060  -29.7990 H   0  0  0  0  0  0  0  0  0  0  0  0
    2.6410  -23.2790  -33.0640 H   0  0  0  0  0  0  0  0  0  0  0  0
    2.4740  -20.1940  -33.0910 H   0  0  0  0  0  0  0  0  0  0  0  0
    4.4100  -19.1780  -32.1330 H   0  0  0  0  0  0  0  0  0  0  0  0
    5.7680  -19.4310  -30.0940 H   0  0  0  0  0  0  0  0  0  0  0  0
    7.9120  -17.9380  -26.9520 H   0  0  0  0  0  0  0  0  0  0  0  0
    4.2410  -19.2810  -25.2650 H   0  0  0  0  0  0  0  0  0  0  0  0
    3.3350  -21.3890  -27.7930 H   0  0  0  0  0  0  0  0  0  0  0  0
    4.2640  -22.4200  -26.6630 H   0  0  0  0  0  0  0  0  0  0  0  0
    3.1880  -21.1370  -26.0260 H   0  0  0  0  0  0  0  0  0  0  0  0
    3.2160  -25.5670  -32.6660 H   0  0  0  0  0  0  0  0  0  0  0  0
    4.7230  -24.6390  -32.4390 H   0  0  0  0  0  0  0  0  0  0  0  0
    3.8040  -25.2110  -31.0190 H   0  0  0  0  0  0  0  0  0  0  0  0
    1.2570  -24.7470  -31.4120 H   0  0  0  0  0  0  0  0  0  0  0  0
    1.9030  -23.6630  -30.1440 H   0  0  0  0  0  0  0  0  0  0  0  0
    0.9150  -22.9930  -31.4750 H   0  0  0  0  0  0  0  0  0  0  0  0
    7.3080  -16.5240  -22.2310 H   0  0  0  0  0  0  0  0  0  0  0  0
  1  2  2  0  0  0  0
  2  3  1  0  0  0  0
  3  5  2  0  0  0  0
  5  6  1  0  0  0  0
  5  7  1  0  0  0  0
  4  7  1  0  0  0  0
  1  8  1  0  0  0  0
  6  8  2  0  0  0  0
  8 10  1  0  0  0  0
 12 15  2  0  0  0  0
  9 15  1  0  0  0  0
 14 16  2  0  0  0  0
  9 16  1  0  0  0  0
  7 16  1  0  0  0  0
 15 17  1  0  0  0  0
  4 17  2  0  0  0  0
  2 18  1  0  0  0  0
  1 19  1  0  0  0  0
 19 20  1  0  0  0  0
 20 21  2  0  0  0  0
 21 22  1  0  0  0  0
 22 23  1  0  0  0  0
 13 23  1  0  0  0  0
 11 23  1  0  0  0  0
 22 24  2  0  0  0  0
 24 25  1  0  0  0  0
 24 26  1  0  0  0  0
 26 27  2  0  0  0  0
 20 27  1  0  0  0  0
 17 28  1  0  0  0  0
 18 29  1  0  0  0  0
 18 30  1  0  0  0  0
 18 31  1  0  0  0  0
 21 32  1  0  0  0  0
 23 33  1  0  0  0  0
 25 34  1  0  0  0  0
 26 35  1  0  0  0  0
 27 36  1  0  0  0  0
  3 37  1  0  0  0  0
  6 38  1  0  0  0  0
 10 39  1  0  0  0  0
 10 40  1  0  0  0  0
 10 41  1  0  0  0  0
 11 42  1  0  0  0  0
 11 43  1  0  0  0  0
 11 44  1  0  0  0  0
 13 45  1  0  0  0  0
 13 46  1  0  0  0  0
 13 47  1  0  0  0  0
  9 48  1  0  0  0  0
M  END
$$$$
