1yv3_deposited_1
  -OEChem-11071115553D

 39 42  0     1  0  0  0  0  0999 V2000
   20.2190   40.0700   38.3550 C   0  0  0  0  0  0  0  0  0  0  0  0
   20.8040   39.4610   37.1660 N   0  0  0  0  0  0  0  0  0  0  0  0
   23.3270   40.1650   38.6660 O   0  0  0  0  0  0  0  0  0  0  0  0
   21.1270   39.5940   39.4710 C   0  0  0  0  0  0  0  0  0  0  0  0
   22.5710   37.9100   36.6560 N   0  3  0  0  0  0  0  0  0  0  0  0
   22.9770   37.6740   40.5790 O   0  0  0  0  0  0  0  0  0  0  0  0
   22.3640   39.1180   38.7490 C   0  0  2  0  0  0  0  0  0  0  0  0
   23.0630   37.9730   39.3960 C   0  0  0  0  0  0  0  0  0  0  0  0
   23.9500   37.2610   38.4880 C   0  0  0  0  0  0  0  0  0  0  0  0
   25.0460   36.6090   38.9980 C   0  0  0  0  0  0  0  0  0  0  0  0
   25.8820   35.9470   38.1320 C   0  0  0  0  0  0  0  0  0  0  0  0
   25.6160   35.9530   36.7820 C   0  0  0  0  0  0  0  0  0  0  0  0
   24.5130   36.6120   36.2890 C   0  0  0  0  0  0  0  0  0  0  0  0
   23.6710   37.2830   37.1430 C   0  0  0  0  0  0  0  0  0  0  0  0
   21.9140   38.7810   37.4030 C   0  0  0  0  0  0  0  0  0  0  0  0
   20.2000   39.5850   35.9510 C   0  0  0  0  0  0  0  0  0  0  0  0
   20.1950   38.5580   35.0360 C   0  0  0  0  0  0  0  0  0  0  0  0
   19.5730   38.7110   33.8190 C   0  0  0  0  0  0  0  0  0  0  0  0
   18.9460   39.8930   33.5080 C   0  0  0  0  0  0  0  0  0  0  0  0
   18.9450   40.9210   34.4200 C   0  0  0  0  0  0  0  0  0  0  0  0
   19.5690   40.7660   35.6350 C   0  0  0  0  0  0  0  0  0  0  0  0
   27.0780   35.2280   38.6450 C   0  0  0  0  0  0  0  0  0  0  0  0
   24.1500   39.8250   39.0530 H   0  0  0  0  0  0  0  0  0  0  0  0
   19.1930   39.7180   38.4850 H   0  0  0  0  0  0  0  0  0  0  0  0
   20.2360   41.1590   38.2640 H   0  0  0  0  0  0  0  0  0  0  0  0
   20.6620   38.7770   40.0270 H   0  0  0  0  0  0  0  0  0  0  0  0
   21.3640   40.4100   40.1570 H   0  0  0  0  0  0  0  0  0  0  0  0
   25.2480   36.6160   40.0630 H   0  0  0  0  0  0  0  0  0  0  0  0
   26.2770   35.4280   36.1020 H   0  0  0  0  0  0  0  0  0  0  0  0
   24.3110   36.6030   35.2250 H   0  0  0  0  0  0  0  0  0  0  0  0
   20.6830   37.6190   35.2670 H   0  0  0  0  0  0  0  0  0  0  0  0
   19.5760   37.8970   33.1030 H   0  0  0  0  0  0  0  0  0  0  0  0
   18.4560   40.0150   32.5490 H   0  0  0  0  0  0  0  0  0  0  0  0
   18.4530   41.8570   34.1800 H   0  0  0  0  0  0  0  0  0  0  0  0
   19.5620   41.5840   36.3460 H   0  0  0  0  0  0  0  0  0  0  0  0
   27.9480   35.4710   38.0300 H   0  0  0  0  0  0  0  0  0  0  0  0
   27.2750   35.5260   39.6780 H   0  0  0  0  0  0  0  0  0  0  0  0
   26.9050   34.1500   38.6100 H   0  0  0  0  0  0  0  0  0  0  0  0
   22.2556   37.7126   35.7278 H   0  0  0  0  0  0  0  0  0  0  0  0
  1  2  1  0  0  0  0
  1  4  1  0  0  0  0
  4  7  1  0  0  0  0
  3  7  1  0  0  0  0
  7  8  1  0  0  0  0
  6  8  2  0  0  0  0
  8  9  1  0  0  0  0
  9 10  2  0  0  0  0
 10 11  1  0  0  0  0
 11 12  2  0  0  0  0
 12 13  1  0  0  0  0
 13 14  2  0  0  0  0
  9 14  1  0  0  0  0
  5 14  1  0  0  0  0
  2 15  1  0  0  0  0
  7 15  1  0  0  0  0
  5 15  2  0  0  0  0
  2 16  1  0  0  0  0
 16 17  2  0  0  0  0
 17 18  1  0  0  0  0
 18 19  2  0  0  0  0
 19 20  1  0  0  0  0
 16 21  1  0  0  0  0
 20 21  2  0  0  0  0
 11 22  1  0  0  0  0
  3 23  1  0  0  0  0
  1 24  1  0  0  0  0
  1 25  1  0  0  0  0
  4 26  1  0  0  0  0
  4 27  1  0  0  0  0
 10 28  1  0  0  0  0
 12 29  1  0  0  0  0
 13 30  1  0  0  0  0
 17 31  1  0  0  0  0
 18 32  1  0  0  0  0
 19 33  1  0  0  0  0
 20 34  1  0  0  0  0
 21 35  1  0  0  0  0
 22 36  1  0  0  0  0
 22 37  1  0  0  0  0
 22 38  1  0  0  0  0
  5 39  1  0  0  0  0
M  CHG  1   5   1
M  END
$$$$
