1l2s_deposited_1
  -OEChem-11071115553D

 25 26  0     0  0  0  0  0  0999 V2000
   23.9640    4.4090   14.0120 N   0  0  0  0  0  0  0  0  0  0  0  0
   22.8520    4.7350   13.3400 C   0  0  0  0  0  0  0  0  0  0  0  0
   21.8030    5.3320   14.0010 C   0  0  0  0  0  0  0  0  0  0  0  0
   22.7200    4.4740   11.9940 C   0  0  0  0  0  0  0  0  0  0  0  0
   20.6480    5.6680   13.3360 C   0  0  0  0  0  0  0  0  0  0  0  0
   21.5670    4.8050   11.3190 C   0  0  0  0  0  0  0  0  0  0  0  0
   20.5310    5.4030   11.9950 C   0  0  0  0  0  0  0  0  0  0  0  0
   19.0740    5.8260   11.1720 Cl  0  0  0  0  0  0  0  0  0  0  0  0
   25.2250    5.3370   13.8660 S   0  0  0  0  0  0  0  0  0  0  0  0
   24.9800    6.5500   15.0740 C   0  0  0  0  0  0  0  0  0  0  0  0
   26.4790    4.7590   14.3080 O   0  0  0  0  0  0  0  0  0  0  0  0
   25.2820    6.1750   12.6850 O   0  0  0  0  0  0  0  0  0  0  0  0
   24.7320    6.3280   16.4120 C   0  0  0  0  0  0  0  0  0  0  0  0
   25.0190    7.9320   14.7510 C   0  0  0  0  0  0  0  0  0  0  0  0
   24.5510    7.8040   17.2650 S   0  0  0  0  0  0  0  0  0  0  0  0
   24.6150    4.9870   17.1440 C   0  0  0  0  0  0  0  0  0  0  0  0
   24.8010    8.7410   15.8470 C   0  0  0  0  0  0  0  0  0  0  0  0
   24.7150    3.9300   16.4660 O   0  0  0  0  0  0  0  0  0  0  0  0
   24.4220    5.0960   18.3860 O   0  5  0  0  0  0  0  0  0  0  0  0
   21.8900    5.5410   15.0610 H   0  0  0  0  0  0  0  0  0  0  0  0
   23.5350    4.0020   11.4590 H   0  0  0  0  0  0  0  0  0  0  0  0
   19.8310    6.1380   13.8710 H   0  0  0  0  0  0  0  0  0  0  0  0
   21.4760    4.5950   10.2600 H   0  0  0  0  0  0  0  0  0  0  0  0
   25.1990    8.3230   13.7600 H   0  0  0  0  0  0  0  0  0  0  0  0
   24.7810    9.8210   15.8700 H   0  0  0  0  0  0  0  0  0  0  0  0
  1  2  1  0  0  0  0
  2  3  2  0  0  0  0
  2  4  1  0  0  0  0
  3  5  1  0  0  0  0
  4  6  2  0  0  0  0
  6  7  1  0  0  0  0
  5  7  2  0  0  0  0
  7  8  1  0  0  0  0
  1  9  1  0  0  0  0
  9 10  1  0  0  0  0
  9 11  2  0  0  0  0
  9 12  2  0  0  0  0
 10 13  2  0  0  0  0
 10 14  1  0  0  0  0
 13 15  1  0  0  0  0
 13 16  1  0  0  0  0
 15 17  1  0  0  0  0
 14 17  2  0  0  0  0
 16 18  2  0  0  0  0
 16 19  1  0  0  0  0
  3 20  1  0  0  0  0
  4 21  1  0  0  0  0
  5 22  1  0  0  0  0
  6 23  1  0  0  0  0
 14 24  1  0  0  0  0
 17 25  1  0  0  0  0
M  CHG  1  19  -1
M  END
