1c1b_deposited_1
     RDKit          3D

 50 51  0  0  0  0  0  0  0  0999 V2000
   -1.1320  -34.1770   27.3480 C   0  0  0  0  0  0  0  0  0  0  0  0
    0.0300  -33.6510   26.8360 C   0  0  0  0  0  0  0  0  0  0  0  0
    0.7140  -32.6990   27.5580 C   0  0  0  0  0  0  0  0  0  0  0  0
    0.2670  -32.2690   28.7790 C   0  0  0  0  0  0  0  0  0  0  0  0
   -0.8860  -32.7920   29.2910 C   0  0  0  0  0  0  0  0  0  0  0  0
   -1.5790  -33.7390   28.5770 C   0  0  0  0  0  0  0  0  0  0  0  0
   -1.8640  -35.3100   25.1630 C   0  0  0  0  0  0  0  0  0  0  0  0
   -2.6350  -34.4060   24.4780 N   0  0  0  0  0  0  0  0  0  0  0  0
   -2.6950  -34.3660   23.1060 C   0  0  0  0  0  0  0  0  0  0  0  0
   -3.3780  -33.5640   22.4950 O   0  0  0  0  0  0  0  0  0  0  0  0
   -3.4260  -33.4130   25.1750 C   0  0  0  0  0  0  0  0  0  0  0  0
   -4.6040  -33.9230   25.7710 O   0  0  0  0  0  0  0  0  0  0  0  0
   -5.7100  -33.4140   25.0350 C   0  0  0  0  0  0  0  0  0  0  0  0
   -6.9790  -34.0420   25.5610 C   0  0  0  0  0  0  0  0  0  0  0  0
   -0.2190  -37.3080   24.9980 C   0  0  0  0  0  0  0  0  0  0  0  0
   -1.9370  -35.2180   26.6430 C   0  0  0  0  0  0  0  0  0  0  0  0
   -0.7920  -38.0650   26.1750 C   0  0  0  0  0  0  0  0  0  0  0  0
    1.1380  -36.7360   25.3100 C   0  0  0  0  0  0  0  0  0  0  0  0
    1.9660  -32.1150   27.0280 C   0  0  0  0  0  0  0  0  0  0  0  0
   -1.3670  -32.3250   30.6120 C   0  0  0  0  0  0  0  0  0  0  0  0
   -1.9360  -35.2830   22.4420 N   0  0  0  0  0  0  0  0  0  0  0  0
   -1.1450  -36.2160   23.0550 C   0  0  0  0  0  0  0  0  0  0  0  0
   -0.4620  -37.0420   22.4750 O   0  0  0  0  0  0  0  0  0  0  0  0
   -1.1230  -36.2240   24.5140 C   0  0  0  0  0  0  0  0  0  0  0  0
    0.4030  -33.9800   25.8730 H   0  0  0  0  0  0  0  0  0  0  0  0
    0.8210  -31.5180   29.3310 H   0  0  0  0  0  0  0  0  0  0  0  0
   -2.4920  -34.1540   28.9890 H   0  0  0  0  0  0  0  0  0  0  0  0
   -2.8030  -32.9670   25.9540 H   0  0  0  0  0  0  0  0  0  0  0  0
   -3.6960  -32.6310   24.4610 H   0  0  0  0  0  0  0  0  0  0  0  0
   -5.7420  -32.3270   25.1520 H   0  0  0  0  0  0  0  0  0  0  0  0
   -5.5740  -33.6550   23.9770 H   0  0  0  0  0  0  0  0  0  0  0  0
   -6.9770  -34.0400   26.6590 H   0  0  0  0  0  0  0  0  0  0  0  0
   -7.8530  -33.4800   25.2130 H   0  0  0  0  0  0  0  0  0  0  0  0
   -7.0640  -35.0800   25.2110 H   0  0  0  0  0  0  0  0  0  0  0  0
   -0.0930  -38.0290   24.1860 H   0  0  0  0  0  0  0  0  0  0  0  0
   -1.6440  -36.1810   27.0640 H   0  0  0  0  0  0  0  0  0  0  0  0
   -2.9820  -35.0670   26.9250 H   0  0  0  0  0  0  0  0  0  0  0  0
   -0.4800  -39.1120   26.1370 H   0  0  0  0  0  0  0  0  0  0  0  0
   -0.4380  -37.6340   27.1140 H   0  0  0  0  0  0  0  0  0  0  0  0
   -1.8840  -38.0300   26.1570 H   0  0  0  0  0  0  0  0  0  0  0  0
    1.4450  -36.0380   24.5280 H   0  0  0  0  0  0  0  0  0  0  0  0
    1.1170  -36.2040   26.2650 H   0  0  0  0  0  0  0  0  0  0  0  0
    1.8800  -37.5360   25.3740 H   0  0  0  0  0  0  0  0  0  0  0  0
   -1.9590  -35.2740   21.4270 H   0  0  0  0  0  0  0  0  0  0  0  0
    2.4450  -32.8240   26.3410 H   0  0  0  0  0  0  0  0  0  0  0  0
    1.7430  -31.1870   26.4900 H   0  0  0  0  0  0  0  0  0  0  0  0
    2.6530  -31.8970   27.8540 H   0  0  0  0  0  0  0  0  0  0  0  0
   -0.6780  -32.6530   31.3940 H   0  0  0  0  0  0  0  0  0  0  0  0
   -1.4210  -31.2330   30.6190 H   0  0  0  0  0  0  0  0  0  0  0  0
   -2.3610  -32.7320   30.8120 H   0  0  0  0  0  0  0  0  0  0  0  0
  1  2  2  0
  1  6  1  0
  1 16  1  0
  2  3  1  0
  2 25  1  0
  3  4  2  0
  3 19  1  0
  4  5  1  0
  4 26  1  0
  5  6  2  0
  5 20  1  0
  6 27  1  0
  7  8  1  0
  7 16  1  0
  7 24  2  0
  8  9  1  0
  8 11  1  0
  9 10  2  0
  9 21  1  0
 11 12  1  0
 11 28  1  0
 11 29  1  0
 12 13  1  0
 13 14  1  0
 13 30  1  0
 13 31  1  0
 14 32  1  0
 14 33  1  0
 14 34  1  0
 15 17  1  0
 15 18  1  0
 15 24  1  0
 15 35  1  0
 16 36  1  0
 16 37  1  0
 17 38  1  0
 17 39  1  0
 17 40  1  0
 18 41  1  0
 18 42  1  0
 18 43  1  0
 19 45  1  0
 19 46  1  0
 19 47  1  0
 20 48  1  0
 20 49  1  0
 20 50  1  0
 21 22  1  0
 21 44  1  0
 22 23  2  0
 22 24  1  0
M  END
