1b9v_deposited_1
  -OEChem-11071115553D

 50 51  0     0  0  0  0  0  0999 V2000
   33.8570   -9.5400   64.9720 C   0  0  0  0  0  0  0  0  0  0  0  0
   32.6710   -9.2310   64.3520 C   0  0  0  0  0  0  0  0  0  0  0  0
   31.5780  -10.0650   64.4400 C   0  0  0  0  0  0  0  0  0  0  0  0
   31.6910  -11.2300   65.1660 C   0  0  0  0  0  0  0  0  0  0  0  0
   32.8750  -11.5510   65.7910 C   0  0  0  0  0  0  0  0  0  0  0  0
   33.9570  -10.7070   65.6940 C   0  0  0  0  0  0  0  0  0  0  0  0
   32.9780  -12.8070   66.5560 C   0  0  0  0  0  0  0  0  0  0  0  0
   32.5600   -8.0530   63.6080 N   0  0  0  0  0  0  0  0  0  0  0  0
   30.3820   -9.7100   63.7930 N   0  0  0  0  0  0  0  0  0  0  0  0
   29.2220  -10.5760   63.8830 C   0  0  0  0  0  0  0  0  0  0  0  0
   29.3580  -11.6600   62.8380 C   0  0  0  0  0  0  0  0  0  0  0  0
   28.2500  -12.6720   63.0010 C   0  0  0  0  0  0  0  0  0  0  0  0
   27.9950   -9.7450   63.5850 C   0  0  0  0  0  0  0  0  0  0  0  0
   27.9300   -8.5540   64.5110 C   0  0  0  0  0  0  0  0  0  0  0  0
   33.1670   -7.9310   62.3090 C   0  0  0  0  0  0  0  0  0  0  0  0
   32.4010   -6.7790   61.6960 C   0  0  0  0  0  0  0  0  0  0  0  0
   31.7430   -6.0460   62.8490 C   0  0  0  0  0  0  0  0  0  0  0  0
   31.8320   -6.9740   64.0190 C   0  0  0  0  0  0  0  0  0  0  0  0
   31.3250   -6.7860   65.1160 O   0  0  0  0  0  0  0  0  0  0  0  0
   33.0520   -9.2140   61.5060 C   0  0  0  0  0  0  0  0  0  0  0  0
   31.7240   -9.4280   61.0520 O   0  0  0  0  0  0  0  0  0  0  0  0
   34.6340   -7.5550   62.3850 C   0  0  0  0  0  0  0  0  0  0  0  0
   34.8880   -6.7510   63.5330 O   0  0  0  0  0  0  0  0  0  0  0  0
   34.0520  -12.9920   67.1920 O   0  0  0  0  0  0  0  0  0  0  0  0
   31.9910  -13.5910   66.4800 O   0  5  0  0  0  0  0  0  0  0  0  0
   34.7080   -8.8750   64.8900 H   0  0  0  0  0  0  0  0  0  0  0  0
   30.8460  -11.9020   65.2490 H   0  0  0  0  0  0  0  0  0  0  0  0
   34.8910  -10.9590   66.1810 H   0  0  0  0  0  0  0  0  0  0  0  0
   30.3410   -8.8410   63.2670 H   0  0  0  0  0  0  0  0  0  0  0  0
   29.1490  -11.0090   64.8830 H   0  0  0  0  0  0  0  0  0  0  0  0
   29.3170  -11.2180   61.8400 H   0  0  0  0  0  0  0  0  0  0  0  0
   30.3250  -12.1580   62.9450 H   0  0  0  0  0  0  0  0  0  0  0  0
   28.2130  -13.0330   64.0330 H   0  0  0  0  0  0  0  0  0  0  0  0
   27.2830  -12.2270   62.7540 H   0  0  0  0  0  0  0  0  0  0  0  0
   28.4160  -13.5250   62.3390 H   0  0  0  0  0  0  0  0  0  0  0  0
   28.0270   -9.4030   62.5480 H   0  0  0  0  0  0  0  0  0  0  0  0
   27.0960  -10.3520   63.7120 H   0  0  0  0  0  0  0  0  0  0  0  0
   28.6270   -8.6770   65.3440 H   0  0  0  0  0  0  0  0  0  0  0  0
   28.1880   -7.6390   63.9720 H   0  0  0  0  0  0  0  0  0  0  0  0
   26.9200   -8.4460   64.9160 H   0  0  0  0  0  0  0  0  0  0  0  0
   33.3510  -10.0720   62.1130 H   0  0  0  0  0  0  0  0  0  0  0  0
   33.0750   -6.1100   61.1560 H   0  0  0  0  0  0  0  0  0  0  0  0
   31.6430   -7.1450   60.9990 H   0  0  0  0  0  0  0  0  0  0  0  0
   32.2700   -5.1180   63.0850 H   0  0  0  0  0  0  0  0  0  0  0  0
   30.6920   -5.8310   62.6390 H   0  0  0  0  0  0  0  0  0  0  0  0
   33.7050   -9.1690   60.6320 H   0  0  0  0  0  0  0  0  0  0  0  0
   31.5090  -10.3550   61.2520 H   0  0  0  0  0  0  0  0  0  0  0  0
   35.2540   -8.4540   62.4480 H   0  0  0  0  0  0  0  0  0  0  0  0
   34.9310   -6.9880   61.4980 H   0  0  0  0  0  0  0  0  0  0  0  0
   35.8270   -6.8750   63.7540 H   0  0  0  0  0  0  0  0  0  0  0  0
  1  2  2  0  0  0  0
  2  3  1  0  0  0  0
  3  4  2  0  0  0  0
  4  5  1  0  0  0  0
  5  6  2  0  0  0  0
  1  6  1  0  0  0  0
  5  7  1  0  0  0  0
  2  8  1  0  0  0  0
  3  9  1  0  0  0  0
  9 10  1  0  0  0  0
 10 11  1  0  0  0  0
 11 12  1  0  0  0  0
 10 13  1  0  0  0  0
 13 14  1  0  0  0  0
  8 15  1  0  0  0  0
 15 16  1  0  0  0  0
 16 17  1  0  0  0  0
 17 18  1  0  0  0  0
  8 18  1  0  0  0  0
 18 19  2  0  0  0  0
 15 20  1  0  0  0  0
 20 21  1  0  0  0  0
 15 22  1  0  0  0  0
 22 23  1  0  0  0  0
  7 24  2  0  0  0  0
  7 25  1  0  0  0  0
  1 26  1  0  0  0  0
  4 27  1  0  0  0  0
  6 28  1  0  0  0  0
  9 29  1  0  0  0  0
 10 30  1  0  0  0  0
 11 31  1  0  0  0  0
 11 32  1  0  0  0  0
 12 33  1  0  0  0  0
 12 34  1  0  0  0  0
 12 35  1  0  0  0  0
 13 36  1  0  0  0  0
 13 37  1  0  0  0  0
 14 38  1  0  0  0  0
 14 39  1  0  0  0  0
 14 40  1  0  0  0  0
 20 41  1  0  0  0  0
 16 42  1  0  0  0  0
 16 43  1  0  0  0  0
 17 44  1  0  0  0  0
 17 45  1  0  0  0  0
 20 46  1  0  0  0  0
 21 47  1  0  0  0  0
 22 48  1  0  0  0  0
 22 49  1  0  0  0  0
 23 50  1  0  0  0  0
M  CHG  1  25  -1
M  END
$$$$
