1AX0_XYP_A_305
     RDKit          3D

  9  9  0  0  0  0  0  0  0  0999 V2000
   -2.5430   -1.1840   -4.1160 C   0  0  0  0  0  0  0  0  0  0  0  0
   -1.2570   -1.9830   -4.3170 C   0  0  0  0  0  0  0  0  0  0  0  0
   -0.1500   -1.4350   -3.4220 C   0  0  0  0  0  0  0  0  0  0  0  0
    0.0170    0.0590   -3.6670 C   0  0  0  0  0  0  0  0  0  0  0  0
   -1.3220    0.7650   -3.4790 C   0  0  0  0  0  0  0  0  0  0  0  0
   -1.4920   -3.3490   -4.0070 O   0  0  0  0  0  0  0  0  0  0  0  0
    1.0710   -2.1040   -3.7030 O   0  0  0  0  0  0  0  0  0  0  0  0
    0.9670    0.5890   -2.7560 O   0  0  0  0  0  0  0  0  0  0  0  0
   -2.3060    0.2040   -4.3700 O   0  0  0  0  0  0  0  0  0  0  0  0
  1  2  1  0
  1  9  1  0
  2  3  1  0
  2  6  1  0
  3  4  1  0
  3  7  1  0
  4  5  1  0
  4  8  1  0
  5  9  1  0
A    1
C1B
A    2
C2B
A    3
C3B
A    4
C4B
A    5
C5B
A    6
O2B
A    7
O3B
A    8
O4B
A    9
O5B
M  END
