1hgh_deposited_1
  -OEChem-11071115553D

 42 42  0     1  0  0  0  0  0999 V2000
   -7.5390   71.7350   28.4420 C   0  0  0  0  0  0  0  0  0  0  0  0
   -8.3660   72.8920   27.8690 C   0  0  1  0  0  0  0  0  0  0  0  0
   -9.7370   72.4930   27.7570 O   0  0  0  0  0  0  0  0  0  0  0  0
   -8.2610   73.9570   28.9530 C   0  0  0  0  0  0  0  0  0  0  0  0
   -6.8810   74.5790   29.0010 C   0  0  2  0  0  0  0  0  0  0  0  0
   -6.9020   75.7110   29.8510 O   0  0  0  0  0  0  0  0  0  0  0  0
   -6.4650   75.0500   27.6330 C   0  0  1  0  0  0  0  0  0  0  0  0
   -5.1320   75.5850   27.7270 N   0  0  0  0  0  0  0  0  0  0  0  0
   -6.5040   73.8410   26.7350 C   0  0  1  0  0  0  0  0  0  0  0  0
   -7.8420   73.3660   26.6250 O   0  0  0  0  0  0  0  0  0  0  0  0
   -6.0790   74.1940   25.3410 C   0  0  2  0  0  0  0  0  0  0  0  0
   -6.8870   75.2680   24.8990 O   0  0  0  0  0  0  0  0  0  0  0  0
   -6.3320   73.0080   24.4440 C   0  0  2  0  0  0  0  0  0  0  0  0
   -5.6160   71.8920   24.9520 O   0  0  0  0  0  0  0  0  0  0  0  0
   -5.8320   73.3120   23.0570 C   0  0  0  0  0  0  0  0  0  0  0  0
   -5.7420   72.0910   22.3450 O   0  0  0  0  0  0  0  0  0  0  0  0
   -4.7700   76.7370   27.0680 C   0  0  0  0  0  0  0  0  0  0  0  0
   -5.4640   77.3730   26.2890 O   0  0  0  0  0  0  0  0  0  0  0  0
   -3.3770   77.1550   27.4130 C   0  0  0  0  0  0  0  0  0  0  0  0
   -9.8780   71.3510   26.9170 C   0  0  0  0  0  0  0  0  0  0  0  0
   -7.7590   71.4680   29.6590 O   0  5  0  0  0  0  0  0  0  0  0  0
   -6.7330   71.1750   27.6480 O   0  0  0  0  0  0  0  0  0  0  0  0
   -6.1520   73.8670   29.3960 H   0  0  0  0  0  0  0  0  0  0  0  0
   -7.1310   75.8370   27.2710 H   0  0  0  0  0  0  0  0  0  0  0  0
   -5.8680   73.0500   27.1360 H   0  0  0  0  0  0  0  0  0  0  0  0
   -5.0290   74.4960   25.3090 H   0  0  0  0  0  0  0  0  0  0  0  0
   -7.3960   72.7580   24.4190 H   0  0  0  0  0  0  0  0  0  0  0  0
   -3.0690   76.6710   28.3440 H   0  0  0  0  0  0  0  0  0  0  0  0
   -9.2140   71.4410   26.0540 H   0  0  0  0  0  0  0  0  0  0  0  0
   -9.6260   70.4500   27.4820 H   0  0  0  0  0  0  0  0  0  0  0  0
  -10.9140   71.2860   26.5730 H   0  0  0  0  0  0  0  0  0  0  0  0
   -3.3490   78.2410   27.5370 H   0  0  0  0  0  0  0  0  0  0  0  0
   -2.7030   76.8600   26.6040 H   0  0  0  0  0  0  0  0  0  0  0  0
   -8.4980   73.5210   29.9270 H   0  0  0  0  0  0  0  0  0  0  0  0
   -8.9980   74.7400   28.7570 H   0  0  0  0  0  0  0  0  0  0  0  0
   -4.8430   73.7760   23.0900 H   0  0  0  0  0  0  0  0  0  0  0  0
   -6.5220   73.9780   22.5330 H   0  0  0  0  0  0  0  0  0  0  0  0
   -4.4450   75.0970   28.2930 H   0  0  0  0  0  0  0  0  0  0  0  0
   -7.0500   75.3760   30.7510 H   0  0  0  0  0  0  0  0  0  0  0  0
   -7.8110   74.9820   24.9960 H   0  0  0  0  0  0  0  0  0  0  0  0
   -5.7980   71.1500   24.3520 H   0  0  0  0  0  0  0  0  0  0  0  0
   -6.6510   71.7630   22.2410 H   0  0  0  0  0  0  0  0  0  0  0  0
  1  2  1  0  0  0  0
  2  3  1  0  0  0  0
  2  4  1  0  0  0  0
  4  5  1  0  0  0  0
  5  6  1  0  0  0  0
  5  7  1  0  0  0  0
  7  8  1  0  0  0  0
  7  9  1  0  0  0  0
  9 10  1  0  0  0  0
  2 10  1  0  0  0  0
  9 11  1  0  0  0  0
 11 12  1  0  0  0  0
 11 13  1  0  0  0  0
 13 14  1  0  0  0  0
 13 15  1  0  0  0  0
 15 16  1  0  0  0  0
  8 17  1  0  0  0  0
 17 18  2  0  0  0  0
 17 19  1  0  0  0  0
  3 20  1  0  0  0  0
  1 21  1  0  0  0  0
  1 22  2  0  0  0  0
  5 23  1  0  0  0  0
  7 24  1  0  0  0  0
  9 25  1  0  0  0  0
 11 26  1  0  0  0  0
 13 27  1  0  0  0  0
 19 28  1  0  0  0  0
 20 29  1  0  0  0  0
 20 30  1  0  0  0  0
 20 31  1  0  0  0  0
 19 32  1  0  0  0  0
 19 33  1  0  0  0  0
  4 34  1  0  0  0  0
  4 35  1  0  0  0  0
 15 36  1  0  0  0  0
 15 37  1  0  0  0  0
  8 38  1  0  0  0  0
  6 39  1  0  0  0  0
 12 40  1  0  0  0  0
 14 41  1  0  0  0  0
 16 42  1  0  0  0  0
M  CHG  1  21  -1
M  END
$$$$
1hgh_deposited_2
  -OEChem-11071115553D

 42 42  0     1  0  0  0  0  0999 V2000
   10.3410   53.2210   19.3700 C   0  0  0  0  0  0  0  0  0  0  0  0
    8.8760   52.7890   19.5880 C   0  0  1  0  0  0  0  0  0  0  0  0
    7.9930   53.8370   19.1430 O   0  0  0  0  0  0  0  0  0  0  0  0
    8.7210   51.5780   18.6760 C   0  0  0  0  0  0  0  0  0  0  0  0
    9.4910   50.3710   19.1810 C   0  0  2  0  0  0  0  0  0  0  0  0
    9.2040   49.2530   18.3430 O   0  0  0  0  0  0  0  0  0  0  0  0
    9.0990   50.0700   20.6110 C   0  0  1  0  0  0  0  0  0  0  0  0
    9.8820   48.9580   21.1130 N   0  0  0  0  0  0  0  0  0  0  0  0
    9.3870   51.3320   21.3970 C   0  0  1  0  0  0  0  0  0  0  0  0
    8.5860   52.4060   20.9290 O   0  0  0  0  0  0  0  0  0  0  0  0
    9.0060   51.2210   22.8510 C   0  0  2  0  0  0  0  0  0  0  0  0
    7.5890   51.1550   22.9350 O   0  0  0  0  0  0  0  0  0  0  0  0
    9.4410   52.4660   23.5950 C   0  0  2  0  0  0  0  0  0  0  0  0
   10.6970   52.9260   23.1080 O   0  0  0  0  0  0  0  0  0  0  0  0
    9.5790   52.1080   25.0550 C   0  0  0  0  0  0  0  0  0  0  0  0
   10.3790   53.0910   25.6780 O   0  0  0  0  0  0  0  0  0  0  0  0
    9.3230   47.9670   21.8980 C   0  0  0  0  0  0  0  0  0  0  0  0
    8.2080   47.9680   22.3990 O   0  0  0  0  0  0  0  0  0  0  0  0
   10.2520   46.8160   22.1000 C   0  0  0  0  0  0  0  0  0  0  0  0
    7.3220   54.4970   20.2270 C   0  0  0  0  0  0  0  0  0  0  0  0
   11.0920   53.2880   20.3890 O   0  5  0  0  0  0  0  0  0  0  0  0
   10.6530   53.4720   18.1730 O   0  0  0  0  0  0  0  0  0  0  0  0
   10.5650   50.5630   19.1230 H   0  0  0  0  0  0  0  0  0  0  0  0
    8.0420   49.8020   20.6760 H   0  0  0  0  0  0  0  0  0  0  0  0
   10.4410   51.5980   21.3010 H   0  0  0  0  0  0  0  0  0  0  0  0
    9.4330   50.3220   23.3020 H   0  0  0  0  0  0  0  0  0  0  0  0
    8.7080   53.2670   23.4670 H   0  0  0  0  0  0  0  0  0  0  0  0
   10.3860   46.6470   23.1720 H   0  0  0  0  0  0  0  0  0  0  0  0
    6.8590   53.7540   20.8930 H   0  0  0  0  0  0  0  0  0  0  0  0
    6.5460   55.1530   19.8160 H   0  0  0  0  0  0  0  0  0  0  0  0
    8.0510   55.0960   20.7920 H   0  0  0  0  0  0  0  0  0  0  0  0
    9.8240   45.9220   21.6370 H   0  0  0  0  0  0  0  0  0  0  0  0
   11.2180   47.0420   21.6410 H   0  0  0  0  0  0  0  0  0  0  0  0
    7.6620   51.3220   18.6040 H   0  0  0  0  0  0  0  0  0  0  0  0
    9.0660   51.8310   17.6700 H   0  0  0  0  0  0  0  0  0  0  0  0
    8.6010   52.0890   25.5430 H   0  0  0  0  0  0  0  0  0  0  0  0
   10.0590   51.1360   25.1790 H   0  0  0  0  0  0  0  0  0  0  0  0
   10.8680   48.9110   20.8790 H   0  0  0  0  0  0  0  0  0  0  0  0
    8.2440   49.1100   18.3910 H   0  0  0  0  0  0  0  0  0  0  0  0
    7.2430   51.9180   22.4390 H   0  0  0  0  0  0  0  0  0  0  0  0
   10.5050   53.5620   22.3980 H   0  0  0  0  0  0  0  0  0  0  0  0
   11.1670   53.1990   25.1200 H   0  0  0  0  0  0  0  0  0  0  0  0
  1  2  1  0  0  0  0
  2  3  1  0  0  0  0
  2  4  1  0  0  0  0
  4  5  1  0  0  0  0
  5  6  1  0  0  0  0
  5  7  1  0  0  0  0
  7  8  1  0  0  0  0
  7  9  1  0  0  0  0
  9 10  1  0  0  0  0
  2 10  1  0  0  0  0
  9 11  1  0  0  0  0
 11 12  1  0  0  0  0
 11 13  1  0  0  0  0
 13 14  1  0  0  0  0
 13 15  1  0  0  0  0
 15 16  1  0  0  0  0
  8 17  1  0  0  0  0
 17 18  2  0  0  0  0
 17 19  1  0  0  0  0
  3 20  1  0  0  0  0
  1 21  1  0  0  0  0
  1 22  2  0  0  0  0
  5 23  1  0  0  0  0
  7 24  1  0  0  0  0
  9 25  1  0  0  0  0
 11 26  1  0  0  0  0
 13 27  1  0  0  0  0
 19 28  1  0  0  0  0
 20 29  1  0  0  0  0
 20 30  1  0  0  0  0
 20 31  1  0  0  0  0
 19 32  1  0  0  0  0
 19 33  1  0  0  0  0
  4 34  1  0  0  0  0
  4 35  1  0  0  0  0
 15 36  1  0  0  0  0
 15 37  1  0  0  0  0
  8 38  1  0  0  0  0
  6 39  1  0  0  0  0
 12 40  1  0  0  0  0
 14 41  1  0  0  0  0
 16 42  1  0  0  0  0
M  CHG  1  21  -1
M  END
$$$$
1hgh_deposited_3
  -OEChem-11071115553D

 42 42  0     1  0  0  0  0  0999 V2000
   -6.8660   62.3560  -17.0620 C   0  0  0  0  0  0  0  0  0  0  0  0
   -7.5650   63.7180  -17.1130 C   0  0  1  0  0  0  0  0  0  0  0  0
   -7.2040   64.3830  -18.3310 O   0  0  0  0  0  0  0  0  0  0  0  0
   -9.0310   63.3310  -17.1650 C   0  0  0  0  0  0  0  0  0  0  0  0
   -9.4690   62.6820  -15.8710 C   0  0  2  0  0  0  0  0  0  0  0  0
  -10.8760   62.4690  -15.8650 O   0  0  0  0  0  0  0  0  0  0  0  0
   -9.1590   63.6020  -14.7280 C   0  0  1  0  0  0  0  0  0  0  0  0
   -9.5870   62.9590  -13.5130 N   0  0  0  0  0  0  0  0  0  0  0  0
   -7.6710   63.8370  -14.7500 C   0  0  1  0  0  0  0  0  0  0  0  0
   -7.3280   64.5170  -15.9530 O   0  0  0  0  0  0  0  0  0  0  0  0
   -7.2550   64.7180  -13.5990 C   0  0  2  0  0  0  0  0  0  0  0  0
   -8.0350   65.8980  -13.6410 O   0  0  0  0  0  0  0  0  0  0  0  0
   -5.7970   65.0930  -13.7260 C   0  0  2  0  0  0  0  0  0  0  0  0
   -5.0250   63.8990  -13.7630 O   0  0  0  0  0  0  0  0  0  0  0  0
   -5.3780   65.8960  -12.5220 C   0  0  0  0  0  0  0  0  0  0  0  0
   -3.9630   65.9570  -12.5060 O   0  0  0  0  0  0  0  0  0  0  0  0
  -10.2410   63.6720  -12.5430 C   0  0  0  0  0  0  0  0  0  0  0  0
  -10.2990   64.8920  -12.4700 O   0  0  0  0  0  0  0  0  0  0  0  0
  -10.8950   62.7640  -11.5540 C   0  0  0  0  0  0  0  0  0  0  0  0
   -5.8400   64.8010  -18.3430 C   0  0  0  0  0  0  0  0  0  0  0  0
   -7.0770   61.6020  -18.0630 O   0  5  0  0  0  0  0  0  0  0  0  0
   -6.1620   62.1380  -16.0350 O   0  0  0  0  0  0  0  0  0  0  0  0
   -8.9740   61.7180  -15.7320 H   0  0  0  0  0  0  0  0  0  0  0  0
   -9.7070   64.5420  -14.8310 H   0  0  0  0  0  0  0  0  0  0  0  0
   -7.1380   62.8860  -14.7030 H   0  0  0  0  0  0  0  0  0  0  0  0
   -7.4380   64.2170  -12.6450 H   0  0  0  0  0  0  0  0  0  0  0  0
   -5.6160   65.6570  -14.6450 H   0  0  0  0  0  0  0  0  0  0  0  0
  -10.1400   62.3900  -10.8570 H   0  0  0  0  0  0  0  0  0  0  0  0
   -5.6870   65.5010  -19.1680 H   0  0  0  0  0  0  0  0  0  0  0  0
   -5.1940   63.9300  -18.4790 H   0  0  0  0  0  0  0  0  0  0  0  0
   -5.5960   65.2950  -17.3980 H   0  0  0  0  0  0  0  0  0  0  0  0
  -11.6580   63.3210  -11.0050 H   0  0  0  0  0  0  0  0  0  0  0  0
  -11.3580   61.9260  -12.0820 H   0  0  0  0  0  0  0  0  0  0  0  0
   -9.6330   64.2260  -17.3430 H   0  0  0  0  0  0  0  0  0  0  0  0
   -9.2040   62.6440  -17.9980 H   0  0  0  0  0  0  0  0  0  0  0  0
   -5.7750   66.9130  -12.5730 H   0  0  0  0  0  0  0  0  0  0  0  0
   -5.7210   65.4230  -11.5980 H   0  0  0  0  0  0  0  0  0  0  0  0
   -9.4020   61.9700  -13.3770 H   0  0  0  0  0  0  0  0  0  0  0  0
  -11.0610   61.8280  -16.5710 H   0  0  0  0  0  0  0  0  0  0  0  0
   -7.8850   66.3000  -14.5140 H   0  0  0  0  0  0  0  0  0  0  0  0
   -4.8860   63.6890  -14.7020 H   0  0  0  0  0  0  0  0  0  0  0  0
   -3.6500   65.0480  -12.3590 H   0  0  0  0  0  0  0  0  0  0  0  0
  1  2  1  0  0  0  0
  2  3  1  0  0  0  0
  2  4  1  0  0  0  0
  4  5  1  0  0  0  0
  5  6  1  0  0  0  0
  5  7  1  0  0  0  0
  7  8  1  0  0  0  0
  7  9  1  0  0  0  0
  9 10  1  0  0  0  0
  2 10  1  0  0  0  0
  9 11  1  0  0  0  0
 11 12  1  0  0  0  0
 11 13  1  0  0  0  0
 13 14  1  0  0  0  0
 13 15  1  0  0  0  0
 15 16  1  0  0  0  0
  8 17  1  0  0  0  0
 17 18  2  0  0  0  0
 17 19  1  0  0  0  0
  3 20  1  0  0  0  0
  1 21  1  0  0  0  0
  1 22  2  0  0  0  0
  5 23  1  0  0  0  0
  7 24  1  0  0  0  0
  9 25  1  0  0  0  0
 11 26  1  0  0  0  0
 13 27  1  0  0  0  0
 19 28  1  0  0  0  0
 20 29  1  0  0  0  0
 20 30  1  0  0  0  0
 20 31  1  0  0  0  0
 19 32  1  0  0  0  0
 19 33  1  0  0  0  0
  4 34  1  0  0  0  0
  4 35  1  0  0  0  0
 15 36  1  0  0  0  0
 15 37  1  0  0  0  0
  8 38  1  0  0  0  0
  6 39  1  0  0  0  0
 12 40  1  0  0  0  0
 14 41  1  0  0  0  0
 16 42  1  0  0  0  0
M  CHG  1  21  -1
M  END
$$$$
1hgh_deposited_4
  -OEChem-11071115553D

 42 42  0     1  0  0  0  0  0999 V2000
   14.3400   51.2330   -4.0200 C   0  0  0  0  0  0  0  0  0  0  0  0
   14.6110   51.6680   -5.4640 C   0  0  1  0  0  0  0  0  0  0  0  0
   13.9620   52.9360   -5.6790 O   0  0  0  0  0  0  0  0  0  0  0  0
   16.1220   51.8860   -5.5230 C   0  0  0  0  0  0  0  0  0  0  0  0
   16.9220   50.5900   -5.5360 C   0  0  2  0  0  0  0  0  0  0  0  0
   18.2950   50.8900   -5.7760 O   0  0  0  0  0  0  0  0  0  0  0  0
   16.4260   49.6600   -6.6200 C   0  0  1  0  0  0  0  0  0  0  0  0
   17.1990   48.4270   -6.5750 N   0  0  0  0  0  0  0  0  0  0  0  0
   14.9500   49.4470   -6.3350 C   0  0  1  0  0  0  0  0  0  0  0  0
   14.2140   50.6710   -6.4140 O   0  0  0  0  0  0  0  0  0  0  0  0
   14.3050   48.5790   -7.3840 C   0  0  2  0  0  0  0  0  0  0  0  0
   14.1750   49.3510   -8.5720 O   0  0  0  0  0  0  0  0  0  0  0  0
   12.9140   48.1960   -6.9390 C   0  0  2  0  0  0  0  0  0  0  0  0
   12.9240   47.8980   -5.5490 O   0  0  0  0  0  0  0  0  0  0  0  0
   12.4870   46.9630   -7.6890 C   0  0  0  0  0  0  0  0  0  0  0  0
   11.3990   46.4000   -6.9860 O   0  0  0  0  0  0  0  0  0  0  0  0
   17.5690   47.7120   -7.7100 C   0  0  0  0  0  0  0  0  0  0  0  0
   17.1530   47.8480   -8.8530 O   0  0  0  0  0  0  0  0  0  0  0  0
   18.6010   46.6760   -7.4020 C   0  0  0  0  0  0  0  0  0  0  0  0
   12.5910   52.7950   -6.0530 C   0  0  0  0  0  0  0  0  0  0  0  0
   13.6690   50.1730   -3.8850 O   0  0  0  0  0  0  0  0  0  0  0  0
   14.8130   51.9780   -3.1150 O   0  5  0  0  0  0  0  0  0  0  0  0
   16.8520   50.0980   -4.5630 H   0  0  0  0  0  0  0  0  0  0  0  0
   16.5660   50.1070   -7.6070 H   0  0  0  0  0  0  0  0  0  0  0  0
   14.8200   49.0100   -5.3420 H   0  0  0  0  0  0  0  0  0  0  0  0
   14.9090   47.6920   -7.5930 H   0  0  0  0  0  0  0  0  0  0  0  0
   12.2120   49.0150   -7.1140 H   0  0  0  0  0  0  0  0  0  0  0  0
   18.3230   45.7360   -7.8910 H   0  0  0  0  0  0  0  0  0  0  0  0
   11.9980   52.5690   -5.1620 H   0  0  0  0  0  0  0  0  0  0  0  0
   12.4830   51.9860   -6.7810 H   0  0  0  0  0  0  0  0  0  0  0  0
   12.2420   53.7310   -6.4960 H   0  0  0  0  0  0  0  0  0  0  0  0
   19.5730   47.0110   -7.7750 H   0  0  0  0  0  0  0  0  0  0  0  0
   18.6520   46.5220   -6.3210 H   0  0  0  0  0  0  0  0  0  0  0  0
   16.3580   52.4550   -6.4260 H   0  0  0  0  0  0  0  0  0  0  0  0
   16.4360   52.4900   -4.6690 H   0  0  0  0  0  0  0  0  0  0  0  0
   12.1630   47.2150   -8.7020 H   0  0  0  0  0  0  0  0  0  0  0  0
   13.2950   46.2280   -7.7410 H   0  0  0  0  0  0  0  0  0  0  0  0
   17.4800   48.0730   -5.6660 H   0  0  0  0  0  0  0  0  0  0  0  0
   18.3370   51.3200   -6.6470 H   0  0  0  0  0  0  0  0  0  0  0  0
   13.6510   50.1380   -8.3390 H   0  0  0  0  0  0  0  0  0  0  0  0
   12.5390   48.6680   -5.0970 H   0  0  0  0  0  0  0  0  0  0  0  0
   11.6170   46.4670   -6.0410 H   0  0  0  0  0  0  0  0  0  0  0  0
  1  2  1  0  0  0  0
  2  3  1  0  0  0  0
  2  4  1  0  0  0  0
  4  5  1  0  0  0  0
  5  6  1  0  0  0  0
  5  7  1  0  0  0  0
  7  8  1  0  0  0  0
  7  9  1  0  0  0  0
  9 10  1  0  0  0  0
  2 10  1  0  0  0  0
  9 11  1  0  0  0  0
 11 12  1  0  0  0  0
 11 13  1  0  0  0  0
 13 14  1  0  0  0  0
 13 15  1  0  0  0  0
 15 16  1  0  0  0  0
  8 17  1  0  0  0  0
 17 18  2  0  0  0  0
 17 19  1  0  0  0  0
  3 20  1  0  0  0  0
  1 21  2  0  0  0  0
  1 22  1  0  0  0  0
  5 23  1  0  0  0  0
  7 24  1  0  0  0  0
  9 25  1  0  0  0  0
 11 26  1  0  0  0  0
 13 27  1  0  0  0  0
 19 28  1  0  0  0  0
 20 29  1  0  0  0  0
 20 30  1  0  0  0  0
 20 31  1  0  0  0  0
 19 32  1  0  0  0  0
 19 33  1  0  0  0  0
  4 34  1  0  0  0  0
  4 35  1  0  0  0  0
 15 36  1  0  0  0  0
 15 37  1  0  0  0  0
  8 38  1  0  0  0  0
  6 39  1  0  0  0  0
 12 40  1  0  0  0  0
 14 41  1  0  0  0  0
 16 42  1  0  0  0  0
M  CHG  1  22  -1
M  END
$$$$
1hgh_deposited_5
  -OEChem-11071115553D

 42 42  0     1  0  0  0  0  0999 V2000
   24.9300   90.7170    1.2950 C   0  0  0  0  0  0  0  0  0  0  0  0
   23.7970   91.7130    1.0660 C   0  0  1  0  0  0  0  0  0  0  0  0
   23.8470   92.7110    2.0970 O   0  0  0  0  0  0  0  0  0  0  0  0
   24.1390   92.3910   -0.2510 C   0  0  0  0  0  0  0  0  0  0  0  0
   23.8970   91.5290   -1.4740 C   0  0  2  0  0  0  0  0  0  0  0  0
   23.9340   92.3610   -2.6270 O   0  0  0  0  0  0  0  0  0  0  0  0
   22.5330   90.8940   -1.4180 C   0  0  1  0  0  0  0  0  0  0  0  0
   22.3690   89.9900   -2.5370 N   0  0  0  0  0  0  0  0  0  0  0  0
   22.4380   90.1570   -0.1040 C   0  0  1  0  0  0  0  0  0  0  0  0
   22.5310   91.0660    0.9870 O   0  0  0  0  0  0  0  0  0  0  0  0
   21.1050   89.4650    0.0160 C   0  0  2  0  0  0  0  0  0  0  0  0
   20.0590   90.4020   -0.1540 O   0  0  0  0  0  0  0  0  0  0  0  0
   21.0110   88.8630    1.3890 C   0  0  2  0  0  0  0  0  0  0  0  0
   22.0010   87.8420    1.4550 O   0  0  0  0  0  0  0  0  0  0  0  0
   19.6270   88.2900    1.5910 C   0  0  0  0  0  0  0  0  0  0  0  0
   19.6830   87.2460    2.5460 O   0  0  0  0  0  0  0  0  0  0  0  0
   21.1890   89.9500   -3.2460 C   0  0  0  0  0  0  0  0  0  0  0  0
   20.1180   90.4470   -2.9210 O   0  0  0  0  0  0  0  0  0  0  0  0
   21.3620   89.1950   -4.5190 C   0  0  0  0  0  0  0  0  0  0  0  0
   23.6340   92.1790    3.4070 C   0  0  0  0  0  0  0  0  0  0  0  0
   26.0970   91.1660    1.1380 O   0  5  0  0  0  0  0  0  0  0  0  0
   24.5750   89.5540    1.6200 O   0  0  0  0  0  0  0  0  0  0  0  0
   24.6740   90.7660   -1.5670 H   0  0  0  0  0  0  0  0  0  0  0  0
   21.7560   91.6590   -1.4880 H   0  0  0  0  0  0  0  0  0  0  0  0
   23.2450   89.4250   -0.0290 H   0  0  0  0  0  0  0  0  0  0  0  0
   21.0020   88.6920   -0.7480 H   0  0  0  0  0  0  0  0  0  0  0  0
   21.2280   89.6090    2.1580 H   0  0  0  0  0  0  0  0  0  0  0  0
   21.3190   88.1230   -4.3110 H   0  0  0  0  0  0  0  0  0  0  0  0
   22.8190   91.4510    3.3820 H   0  0  0  0  0  0  0  0  0  0  0  0
   23.3720   92.9950    4.0860 H   0  0  0  0  0  0  0  0  0  0  0  0
   24.5490   91.6940    3.7570 H   0  0  0  0  0  0  0  0  0  0  0  0
   20.5600   89.4680   -5.2110 H   0  0  0  0  0  0  0  0  0  0  0  0
   22.3300   89.4470   -4.9600 H   0  0  0  0  0  0  0  0  0  0  0  0
   23.5370   93.2990   -0.3410 H   0  0  0  0  0  0  0  0  0  0  0  0
   25.1870   92.7020   -0.2380 H   0  0  0  0  0  0  0  0  0  0  0  0
   18.9400   89.0590    1.9540 H   0  0  0  0  0  0  0  0  0  0  0  0
   19.2390   87.8830    0.6540 H   0  0  0  0  0  0  0  0  0  0  0  0
   23.1350   89.3790   -2.8000 H   0  0  0  0  0  0  0  0  0  0  0  0
   24.8720   92.4810   -2.8510 H   0  0  0  0  0  0  0  0  0  0  0  0
   20.0930   90.9990    0.6140 H   0  0  0  0  0  0  0  0  0  0  0  0
   21.9580   87.4720    2.3530 H   0  0  0  0  0  0  0  0  0  0  0  0
   19.6500   87.6700    3.4210 H   0  0  0  0  0  0  0  0  0  0  0  0
  1  2  1  0  0  0  0
  2  3  1  0  0  0  0
  2  4  1  0  0  0  0
  4  5  1  0  0  0  0
  5  6  1  0  0  0  0
  5  7  1  0  0  0  0
  7  8  1  0  0  0  0
  7  9  1  0  0  0  0
  9 10  1  0  0  0  0
  2 10  1  0  0  0  0
  9 11  1  0  0  0  0
 11 12  1  0  0  0  0
 11 13  1  0  0  0  0
 13 14  1  0  0  0  0
 13 15  1  0  0  0  0
 15 16  1  0  0  0  0
  8 17  1  0  0  0  0
 17 18  2  0  0  0  0
 17 19  1  0  0  0  0
  3 20  1  0  0  0  0
  1 21  1  0  0  0  0
  1 22  2  0  0  0  0
  5 23  1  0  0  0  0
  7 24  1  0  0  0  0
  9 25  1  0  0  0  0
 11 26  1  0  0  0  0
 13 27  1  0  0  0  0
 19 28  1  0  0  0  0
 20 29  1  0  0  0  0
 20 30  1  0  0  0  0
 20 31  1  0  0  0  0
 19 32  1  0  0  0  0
 19 33  1  0  0  0  0
  4 34  1  0  0  0  0
  4 35  1  0  0  0  0
 15 36  1  0  0  0  0
 15 37  1  0  0  0  0
  8 38  1  0  0  0  0
  6 39  1  0  0  0  0
 12 40  1  0  0  0  0
 14 41  1  0  0  0  0
 16 42  1  0  0  0  0
M  CHG  1  21  -1
M  END
$$$$
1hgh_deposited_6
  -OEChem-11071115553D

 42 42  0     1  0  0  0  0  0999 V2000
   28.1560   64.8830    9.2740 C   0  0  0  0  0  0  0  0  0  0  0  0
   28.6570   65.9390   10.2730 C   0  0  1  0  0  0  0  0  0  0  0  0
   27.6790   67.0010   10.3570 O   0  0  0  0  0  0  0  0  0  0  0  0
   28.6080   65.2070   11.6070 C   0  0  0  0  0  0  0  0  0  0  0  0
   29.7680   64.2590   11.8440 C   0  0  2  0  0  0  0  0  0  0  0  0
   29.7440   63.9100   13.2210 O   0  0  0  0  0  0  0  0  0  0  0  0
   31.0910   64.9180   11.5330 C   0  0  1  0  0  0  0  0  0  0  0  0
   32.1820   63.9790   11.7080 N   0  0  0  0  0  0  0  0  0  0  0  0
   31.0150   65.4170   10.1070 C   0  0  1  0  0  0  0  0  0  0  0  0
   29.9880   66.4030    9.9870 O   0  0  0  0  0  0  0  0  0  0  0  0
   32.3200   66.0950    9.7400 C   0  0  2  0  0  0  0  0  0  0  0  0
   32.4540   67.2640   10.5330 O   0  0  0  0  0  0  0  0  0  0  0  0
   32.3620   66.5320    8.2920 C   0  0  2  0  0  0  0  0  0  0  0  0
   31.9550   65.4600    7.4520 O   0  0  0  0  0  0  0  0  0  0  0  0
   33.7820   66.9030    7.9270 C   0  0  0  0  0  0  0  0  0  0  0  0
   34.0790   66.3240    6.6600 O   0  0  0  0  0  0  0  0  0  0  0  0
   33.3450   64.3360   12.3760 C   0  0  0  0  0  0  0  0  0  0  0  0
   33.7180   65.4660   12.6530 O   0  0  0  0  0  0  0  0  0  0  0  0
   34.1790   63.1620   12.7630 C   0  0  0  0  0  0  0  0  0  0  0  0
   27.9160   68.0830    9.4510 C   0  0  0  0  0  0  0  0  0  0  0  0
   28.9700   64.5380    8.3650 O   0  5  0  0  0  0  0  0  0  0  0  0
   26.9760   64.4690    9.4690 O   0  0  0  0  0  0  0  0  0  0  0  0
   29.6450   63.3490   11.2520 H   0  0  0  0  0  0  0  0  0  0  0  0
   31.2630   65.7530   12.2160 H   0  0  0  0  0  0  0  0  0  0  0  0
   30.8070   64.5900    9.4260 H   0  0  0  0  0  0  0  0  0  0  0  0
   33.1630   65.4350    9.9560 H   0  0  0  0  0  0  0  0  0  0  0  0
   31.6900   67.3770    8.1250 H   0  0  0  0  0  0  0  0  0  0  0  0
   35.0510   63.1090   12.1050 H   0  0  0  0  0  0  0  0  0  0  0  0
   27.1220   68.8270    9.5660 H   0  0  0  0  0  0  0  0  0  0  0  0
   27.9170   67.7030    8.4230 H   0  0  0  0  0  0  0  0  0  0  0  0
   28.8850   68.5450    9.6750 H   0  0  0  0  0  0  0  0  0  0  0  0
   34.5070   63.2780   13.7990 H   0  0  0  0  0  0  0  0  0  0  0  0
   33.5890   62.2490   12.6630 H   0  0  0  0  0  0  0  0  0  0  0  0
   28.5960   65.9510   12.4060 H   0  0  0  0  0  0  0  0  0  0  0  0
   27.6730   64.6460   11.6770 H   0  0  0  0  0  0  0  0  0  0  0  0
   33.8930   67.9930    7.8570 H   0  0  0  0  0  0  0  0  0  0  0  0
   34.4960   66.5150    8.6670 H   0  0  0  0  0  0  0  0  0  0  0  0
   32.0900   63.0400   11.3330 H   0  0  0  0  0  0  0  0  0  0  0  0
   29.8420   64.7390   13.7200 H   0  0  0  0  0  0  0  0  0  0  0  0
   31.6620   67.8050   10.3710 H   0  0  0  0  0  0  0  0  0  0  0  0
   31.0010   65.5680    7.3070 H   0  0  0  0  0  0  0  0  0  0  0  0
   33.4880   65.5580    6.5640 H   0  0  0  0  0  0  0  0  0  0  0  0
  1  2  1  0  0  0  0
  2  3  1  0  0  0  0
  2  4  1  0  0  0  0
  4  5  1  0  0  0  0
  5  6  1  0  0  0  0
  5  7  1  0  0  0  0
  7  8  1  0  0  0  0
  7  9  1  0  0  0  0
  2 10  1  0  0  0  0
  9 10  1  0  0  0  0
  9 11  1  0  0  0  0
 11 12  1  0  0  0  0
 11 13  1  0  0  0  0
 13 14  1  0  0  0  0
 13 15  1  0  0  0  0
 15 16  1  0  0  0  0
  8 17  1  0  0  0  0
 17 18  2  0  0  0  0
 17 19  1  0  0  0  0
  3 20  1  0  0  0  0
  1 21  1  0  0  0  0
  1 22  2  0  0  0  0
  5 23  1  0  0  0  0
  7 24  1  0  0  0  0
  9 25  1  0  0  0  0
 11 26  1  0  0  0  0
 13 27  1  0  0  0  0
 19 28  1  0  0  0  0
 20 29  1  0  0  0  0
 20 30  1  0  0  0  0
 20 31  1  0  0  0  0
 19 32  1  0  0  0  0
 19 33  1  0  0  0  0
  4 34  1  0  0  0  0
  4 35  1  0  0  0  0
 15 36  1  0  0  0  0
 15 37  1  0  0  0  0
  8 38  1  0  0  0  0
  6 39  1  0  0  0  0
 12 40  1  0  0  0  0
 14 41  1  0  0  0  0
 16 42  1  0  0  0  0
M  CHG  1  21  -1
M  END
$$$$
