1f0t_deposited_1
  -OEChem-11071115553D

 50 53  0     1  0  0  0  0  0999 V2000
   13.6630   -3.4850   25.0710 C   0  0  0  0  0  0  0  0  0  0  0  0
   14.0560   -3.6570   23.7640 C   0  0  0  0  0  0  0  0  0  0  0  0
   13.1900   -4.2400   22.8710 C   0  0  0  0  0  0  0  0  0  0  0  0
   11.9390   -4.6540   23.2590 C   0  0  0  0  0  0  0  0  0  0  0  0
   11.5600   -4.4740   24.5700 C   0  0  0  0  0  0  0  0  0  0  0  0
   12.4130   -3.8910   25.4830 C   0  0  0  0  0  0  0  0  0  0  0  0
   12.0020   -3.7070   26.8640 C   0  0  0  0  0  0  0  0  0  0  0  0
   10.7560   -3.9810   27.2080 N   0  0  0  0  0  0  0  0  0  0  0  0
   12.8750   -3.2680   27.7520 N   0  3  0  0  0  0  0  0  0  0  0  0
   11.0040   -5.2850   22.2810 C   0  0  0  0  0  0  0  0  0  0  0  0
   12.8220  -13.0170   24.0680 C   0  0  0  0  0  0  0  0  0  0  0  0
   13.7200  -13.4840   24.9980 C   0  0  0  0  0  0  0  0  0  0  0  0
   14.8640  -14.0440   24.4860 C   0  0  0  0  0  0  0  0  0  0  0  0
   15.0410  -14.1040   23.1280 C   0  0  0  0  0  0  0  0  0  0  0  0
   14.1850  -13.6590   22.2100 N   0  0  0  0  0  0  0  0  0  0  0  0
   13.0660  -13.1110   22.7090 C   0  0  0  0  0  0  0  0  0  0  0  0
   12.0170  -12.5720   21.9180 C   0  0  0  0  0  0  0  0  0  0  0  0
   10.9850  -12.0730   22.6780 C   0  0  0  0  0  0  0  0  0  0  0  0
   11.3040  -12.2650   24.3530 S   0  0  0  0  0  0  0  0  0  0  0  0
   11.1690   -6.7100   22.1520 N   0  0  0  0  0  0  0  0  0  0  0  0
   10.1380   -7.5970   22.2870 C   0  0  0  0  0  0  0  0  0  0  0  0
   10.7480   -8.9570   22.3630 C   0  0  2  0  0  0  0  0  0  0  0  0
   12.1460   -8.7990   21.8050 C   0  0  0  0  0  0  0  0  0  0  0  0
   12.4380   -7.3170   21.8690 C   0  0  0  0  0  0  0  0  0  0  0  0
    9.9180   -9.8300   21.5160 N   0  0  0  0  0  0  0  0  0  0  0  0
    9.4670  -11.3070   22.2520 S   0  0  0  0  0  0  0  0  0  0  0  0
    8.7900  -11.0510   23.5080 O   0  0  0  0  0  0  0  0  0  0  0  0
    8.8970  -12.1820   21.2430 O   0  0  0  0  0  0  0  0  0  0  0  0
    8.9410   -7.3570   22.3380 O   0  0  0  0  0  0  0  0  0  0  0  0
   13.5900   -4.4100   21.5640 O   0  0  0  0  0  0  0  0  0  0  0  0
   14.3470   -3.0250   25.7740 H   0  0  0  0  0  0  0  0  0  0  0  0
   15.0400   -3.3370   23.4420 H   0  0  0  0  0  0  0  0  0  0  0  0
   10.5750   -4.7980   24.8800 H   0  0  0  0  0  0  0  0  0  0  0  0
   10.4510   -3.8580   28.1670 H   0  0  0  0  0  0  0  0  0  0  0  0
   10.0850   -4.3180   26.5280 H   0  0  0  0  0  0  0  0  0  0  0  0
   13.8300   -3.0570   27.4900 H   0  0  0  0  0  0  0  0  0  0  0  0
   12.5980   -3.1350   28.7180 H   0  0  0  0  0  0  0  0  0  0  0  0
    9.9740   -5.0970   22.5950 H   0  0  0  0  0  0  0  0  0  0  0  0
   11.1530   -4.8450   21.2920 H   0  0  0  0  0  0  0  0  0  0  0  0
   13.5460  -13.4180   26.0640 H   0  0  0  0  0  0  0  0  0  0  0  0
   15.6230  -14.4360   25.1530 H   0  0  0  0  0  0  0  0  0  0  0  0
   15.9450  -14.5470   22.7260 H   0  0  0  0  0  0  0  0  0  0  0  0
   12.0180  -12.5510   20.8380 H   0  0  0  0  0  0  0  0  0  0  0  0
   10.7540   -9.3110   23.3960 H   0  0  0  0  0  0  0  0  0  0  0  0
   12.8660   -9.3600   22.4050 H   0  0  0  0  0  0  0  0  0  0  0  0
   12.1910   -9.1550   20.7720 H   0  0  0  0  0  0  0  0  0  0  0  0
   12.8110   -6.9320   20.9170 H   0  0  0  0  0  0  0  0  0  0  0  0
   13.1370   -7.0770   22.6750 H   0  0  0  0  0  0  0  0  0  0  0  0
    9.1900   -9.3310   20.9890 H   0  0  0  0  0  0  0  0  0  0  0  0
   13.0860   -3.7550   21.0510 H   0  0  0  0  0  0  0  0  0  0  0  0
  1  2  2  0  0  0  0
  2  3  1  0  0  0  0
  3  4  2  0  0  0  0
  4  5  1  0  0  0  0
  5  6  2  0  0  0  0
  1  6  1  0  0  0  0
  6  7  1  0  0  0  0
  7  8  1  0  0  0  0
  7  9  2  0  0  0  0
  4 10  1  0  0  0  0
 11 12  2  0  0  0  0
 12 13  1  0  0  0  0
 13 14  2  0  0  0  0
 14 15  1  0  0  0  0
 11 16  1  0  0  0  0
 15 16  2  0  0  0  0
 16 17  1  0  0  0  0
 17 18  2  0  0  0  0
 18 19  1  0  0  0  0
 11 19  1  0  0  0  0
 10 20  1  0  0  0  0
 20 21  1  0  0  0  0
 21 22  1  0  0  0  0
 22 23  1  0  0  0  0
 23 24  1  0  0  0  0
 20 24  1  0  0  0  0
 22 25  1  0  0  0  0
 25 26  1  0  0  0  0
 18 26  1  0  0  0  0
 26 27  2  0  0  0  0
 26 28  2  0  0  0  0
 21 29  2  0  0  0  0
  3 30  1  0  0  0  0
  1 31  1  0  0  0  0
  2 32  1  0  0  0  0
  5 33  1  0  0  0  0
  8 34  1  0  0  0  0
  8 35  1  0  0  0  0
  9 36  1  0  0  0  0
  9 37  1  0  0  0  0
 10 38  1  0  0  0  0
 10 39  1  0  0  0  0
 12 40  1  0  0  0  0
 13 41  1  0  0  0  0
 14 42  1  0  0  0  0
 17 43  1  0  0  0  0
 22 44  1  0  0  0  0
 23 45  1  0  0  0  0
 23 46  1  0  0  0  0
 24 47  1  0  0  0  0
 24 48  1  0  0  0  0
 25 49  1  0  0  0  0
 30 50  1  0  0  0  0
M  CHG  1   9   1
M  END
$$$$
