1k3u_deposited_1
  -OEChem-11071115553D

 33 34  0     1  0  0  0  0  0999 V2000
   48.4610   28.6400   10.4380 C   0  0  0  0  0  0  0  0  0  0  0  0
   48.3340   28.1920   12.8100 N   0  0  0  0  0  0  0  0  0  0  0  0
   49.0850   29.6820   10.7810 O   0  5  0  0  0  0  0  0  0  0  0  0
   52.1410   26.9910   15.1680 N   0  0  0  0  0  0  0  0  0  0  0  0
   48.4290   28.0470    9.3260 O   0  0  0  0  0  0  0  0  0  0  0  0
   51.1910   27.9680   15.2210 C   0  0  0  0  0  0  0  0  0  0  0  0
   49.9550   27.3690   15.1390 C   0  0  0  0  0  0  0  0  0  0  0  0
   49.3320   24.8890   14.9250 C   0  0  0  0  0  0  0  0  0  0  0  0
   49.9060   23.6440   14.8400 C   0  0  0  0  0  0  0  0  0  0  0  0
   51.2680   23.4670   14.8610 C   0  0  0  0  0  0  0  0  0  0  0  0
   52.1300   24.5310   14.9690 C   0  0  0  0  0  0  0  0  0  0  0  0
   51.5430   25.7690   15.0530 C   0  0  0  0  0  0  0  0  0  0  0  0
   50.1780   25.9730   15.0330 C   0  0  0  0  0  0  0  0  0  0  0  0
   47.6670   27.9810   11.5490 C   0  0  1  0  0  0  0  0  0  0  0  0
   46.2940   28.6420   11.5620 C   0  0  0  0  0  0  0  0  0  0  0  0
   45.9890   29.1050   10.1500 C   0  0  0  0  0  0  0  0  0  0  0  0
   48.6550   28.0590   15.1600 C   0  0  0  0  0  0  0  0  0  0  0  0
   47.8240   27.6790   13.9760 C   0  0  0  0  0  0  0  0  0  0  0  0
   46.8150   26.9990   14.0760 O   0  0  0  0  0  0  0  0  0  0  0  0
   46.3400   30.2870    9.8970 O   0  0  0  0  0  0  0  0  0  0  0  0
   45.3900   28.2710    9.4150 O   0  5  0  0  0  0  0  0  0  0  0  0
   49.1940   28.7300   12.8330 H   0  0  0  0  0  0  0  0  0  0  0  0
   53.1400   27.1480   15.2070 H   0  0  0  0  0  0  0  0  0  0  0  0
   51.4740   29.0060   15.3120 H   0  0  0  0  0  0  0  0  0  0  0  0
   48.2550   25.0060   14.9050 H   0  0  0  0  0  0  0  0  0  0  0  0
   49.2640   22.7750   14.7530 H   0  0  0  0  0  0  0  0  0  0  0  0
   51.6730   22.4640   14.7910 H   0  0  0  0  0  0  0  0  0  0  0  0
   53.2050   24.3950   14.9870 H   0  0  0  0  0  0  0  0  0  0  0  0
   47.5940   26.9060   11.3670 H   0  0  0  0  0  0  0  0  0  0  0  0
   46.2820   29.4990   12.2380 H   0  0  0  0  0  0  0  0  0  0  0  0
   45.5270   27.9300   11.8770 H   0  0  0  0  0  0  0  0  0  0  0  0
   48.8020   29.1410   15.1350 H   0  0  0  0  0  0  0  0  0  0  0  0
   48.1010   27.8000   16.0660 H   0  0  0  0  0  0  0  0  0  0  0  0
  1  3  1  0  0  0  0
  1  5  2  0  0  0  0
  4  6  1  0  0  0  0
  6  7  2  0  0  0  0
  8  9  2  0  0  0  0
  9 10  1  0  0  0  0
 10 11  2  0  0  0  0
 11 12  1  0  0  0  0
  4 12  1  0  0  0  0
 12 13  2  0  0  0  0
  8 13  1  0  0  0  0
  7 13  1  0  0  0  0
  2 14  1  0  0  0  0
  1 14  1  0  0  0  0
 14 15  1  0  0  0  0
 15 16  1  0  0  0  0
  7 17  1  0  0  0  0
  2 18  1  0  0  0  0
 17 18  1  0  0  0  0
 18 19  2  0  0  0  0
 16 20  2  0  0  0  0
 16 21  1  0  0  0  0
  2 22  1  0  0  0  0
  4 23  1  0  0  0  0
  6 24  1  0  0  0  0
  8 25  1  0  0  0  0
  9 26  1  0  0  0  0
 10 27  1  0  0  0  0
 11 28  1  0  0  0  0
 14 29  1  0  0  0  0
 15 30  1  0  0  0  0
 15 31  1  0  0  0  0
 17 32  1  0  0  0  0
 17 33  1  0  0  0  0
M  CHG  2   3  -1  21  -1
M  END
$$$$
