
     RDKit          3D

 26 25  0  0  0  0  0  0  0  0999 V2000
   49.3730   57.0640  -37.8060 P   0  0  0  0  0  0  0  0  0  0  0  0
   49.9370   57.0160  -36.4030 O   0  0  0  0  0  0  0  0  0  0  0  0
   50.3820   56.6260  -38.8160 O   0  0  0  0  0  0  0  0  0  0  0  0
   47.9990   56.5130  -37.7670 O   0  0  0  0  0  0  0  0  0  0  0  0
   49.3050   58.6700  -38.0330 O   0  0  0  0  0  0  0  0  0  0  0  0
   49.6390   59.4420  -36.8830 C   0  0  0  0  0  0  0  0  0  0  0  0
   50.9850   59.0180  -36.2820 C   0  0  0  0  0  0  0  0  0  0  0  0
   51.1110   59.5510  -34.8670 N   0  0  0  0  0  0  0  0  0  0  0  0
   50.0110   59.0640  -34.0310 C   0  0  0  0  0  0  0  0  0  0  0  0
   52.4710   59.1760  -34.2810 C   0  0  0  0  0  0  0  0  0  0  0  0
   51.0250   61.0600  -34.9880 C   0  0  0  0  0  0  0  0  0  0  0  0
   49.1975   57.0789  -35.7477 H   0  0  0  0  0  0  0  0  0  0  0  0
   51.1840   56.2778  -38.3517 H   0  0  0  0  0  0  0  0  0  0  0  0
   49.6958   60.5023  -37.1704 H   0  0  0  0  0  0  0  0  0  0  0  0
   48.8597   59.2787  -36.1241 H   0  0  0  0  0  0  0  0  0  0  0  0
   51.0467   57.9199  -36.2647 H   0  0  0  0  0  0  0  0  0  0  0  0
   51.8004   59.4273  -36.8965 H   0  0  0  0  0  0  0  0  0  0  0  0
   50.2769   59.1817  -32.9701 H   0  0  0  0  0  0  0  0  0  0  0  0
   49.1015   59.6436  -34.2476 H   0  0  0  0  0  0  0  0  0  0  0  0
   49.8287   58.0011  -34.2476 H   0  0  0  0  0  0  0  0  0  0  0  0
   52.4139   59.1917  -33.1826 H   0  0  0  0  0  0  0  0  0  0  0  0
   52.7505   58.1673  -34.6192 H   0  0  0  0  0  0  0  0  0  0  0  0
   53.2279   59.8989  -34.6192 H   0  0  0  0  0  0  0  0  0  0  0  0
   50.9995   61.5075  -33.9835 H   0  0  0  0  0  0  0  0  0  0  0  0
   51.9032   61.4347  -35.5342 H   0  0  0  0  0  0  0  0  0  0  0  0
   50.1099   61.3325  -35.5342 H   0  0  0  0  0  0  0  0  0  0  0  0
  2  1  1  0
  3  1  1  0
  4  1  2  0
  5  1  1  0
  6  5  1  0
  7  6  1  0
  8  7  1  0
  8  9  1  0
 10  8  1  0
 11  8  1  0
  2 12  1  0
  3 13  1  0
  6 14  1  0
  6 15  1  0
  7 16  1  0
  7 17  1  0
  9 18  1  0
  9 19  1  0
  9 20  1  0
 10 21  1  0
 10 22  1  0
 10 23  1  0
 11 24  1  0
 11 25  1  0
 11 26  1  0
M  CHG  1   8   1
M  END
