1q1g_deposited_1
  -OEChem-11071115553D

 37 39  0     1  0  0  0  0  0999 V2000
    9.9910    8.0450   94.1450 N   0  0  0  0  0  0  0  0  0  0  0  0
   10.6080    7.0630   93.3950 C   0  0  0  0  0  0  0  0  0  0  0  0
   10.0660    6.1240   92.6820 N   0  0  0  0  0  0  0  0  0  0  0  0
    8.6740    6.1960   92.7430 C   0  0  0  0  0  0  0  0  0  0  0  0
    8.0140    7.1470   93.4700 C   0  0  0  0  0  0  0  0  0  0  0  0
    8.6260    8.1610   94.2370 C   0  0  0  0  0  0  0  0  0  0  0  0
    8.0310    9.0100   94.8840 O   0  0  0  0  0  0  0  0  0  0  0  0
    6.6810    6.9250   93.3080 N   0  0  0  0  0  0  0  0  0  0  0  0
    6.5050    5.8470   92.4870 C   0  0  0  0  0  0  0  0  0  0  0  0
    7.7330    5.3500   92.1050 C   0  0  0  0  0  0  0  0  0  0  0  0
    9.9370    1.6200   95.7660 C   0  0  0  0  0  0  0  0  0  0  0  0
    7.9390    4.1900   91.2130 C   0  0  1  0  0  0  0  0  0  0  0  0
    9.3760    3.7410   91.0540 C   0  0  2  0  0  0  0  0  0  0  0  0
    9.7720    3.9170   89.6990 O   0  0  0  0  0  0  0  0  0  0  0  0
    9.4290    2.2730   91.4080 C   0  0  2  0  0  0  0  0  0  0  0  0
    9.4110    1.4900   90.2220 O   0  0  0  0  0  0  0  0  0  0  0  0
    8.1760    1.9900   92.1900 C   0  0  2  0  0  0  0  0  0  0  0  0
    7.2080    2.9950   91.6990 N   0  3  0  0  0  0  0  0  0  0  0  0
    8.3790    2.2540   93.6630 C   0  0  0  0  0  0  0  0  0  0  0  0
    9.1490    0.7900   94.3820 S   0  0  0  0  0  0  0  0  0  0  0  0
   10.5700    8.7090   94.6480 H   0  0  0  0  0  0  0  0  0  0  0  0
   11.7040    7.1390   93.4480 H   0  0  0  0  0  0  0  0  0  0  0  0
    5.9400    7.4730   93.7260 H   0  0  0  0  0  0  0  0  0  0  0  0
    5.5080    5.5180   92.2400 H   0  0  0  0  0  0  0  0  0  0  0  0
   10.8580    2.1050   95.4350 H   0  0  0  0  0  0  0  0  0  0  0  0
    9.2560    2.3690   96.1710 H   0  0  0  0  0  0  0  0  0  0  0  0
   10.1730    0.8940   96.5480 H   0  0  0  0  0  0  0  0  0  0  0  0
    7.5130    4.4070   90.2310 H   0  0  0  0  0  0  0  0  0  0  0  0
   10.0480    4.3140   91.6950 H   0  0  0  0  0  0  0  0  0  0  0  0
    9.2570    3.2820   89.1730 H   0  0  0  0  0  0  0  0  0  0  0  0
   10.3250    2.0340   91.9860 H   0  0  0  0  0  0  0  0  0  0  0  0
    9.7790    0.6220   90.4590 H   0  0  0  0  0  0  0  0  0  0  0  0
    7.7680    0.9960   91.9900 H   0  0  0  0  0  0  0  0  0  0  0  0
    6.6440    2.5960   90.9370 H   0  0  0  0  0  0  0  0  0  0  0  0
    6.5500    3.2540   92.4440 H   0  0  0  0  0  0  0  0  0  0  0  0
    7.4230    2.4420   94.1580 H   0  0  0  0  0  0  0  0  0  0  0  0
    9.0290    3.1200   93.8110 H   0  0  0  0  0  0  0  0  0  0  0  0
  1  2  1  0  0  0  0
  2  3  2  0  0  0  0
  3  4  1  0  0  0  0
  4  5  2  0  0  0  0
  5  6  1  0  0  0  0
  1  6  1  0  0  0  0
  6  7  2  0  0  0  0
  5  8  1  0  0  0  0
  8  9  1  0  0  0  0
  9 10  2  0  0  0  0
  4 10  1  0  0  0  0
 10 12  1  0  0  0  0
 12 13  1  0  0  0  0
 13 14  1  0  0  0  0
 13 15  1  0  0  0  0
 15 16  1  0  0  0  0
 15 17  1  0  0  0  0
 17 18  1  0  0  0  0
 12 18  1  0  0  0  0
 17 19  1  0  0  0  0
 19 20  1  0  0  0  0
 11 20  1  0  0  0  0
  1 21  1  0  0  0  0
  2 22  1  0  0  0  0
  8 23  1  0  0  0  0
  9 24  1  0  0  0  0
 11 25  1  0  0  0  0
 11 26  1  0  0  0  0
 11 27  1  0  0  0  0
 12 28  1  0  0  0  0
 13 29  1  0  0  0  0
 14 30  1  0  0  0  0
 15 31  1  0  0  0  0
 16 32  1  0  0  0  0
 17 33  1  0  0  0  0
 18 34  1  0  0  0  0
 18 35  1  0  0  0  0
 19 36  1  0  0  0  0
 19 37  1  0  0  0  0
M  CHG  1  18   1
M  END
$$$$
1q1g_deposited_2
  -OEChem-11071115553D

 37 39  0     1  0  0  0  0  0999 V2000
   27.0220  -11.6000   86.7680 N   0  0  0  0  0  0  0  0  0  0  0  0
   26.1420  -10.8550   87.5320 C   0  0  0  0  0  0  0  0  0  0  0  0
   25.2050  -11.2760   88.3260 N   0  0  0  0  0  0  0  0  0  0  0  0
   25.1580  -12.6700   88.3460 C   0  0  0  0  0  0  0  0  0  0  0  0
   26.0040  -13.4530   87.6120 C   0  0  0  0  0  0  0  0  0  0  0  0
   27.0170  -12.9740   86.7540 C   0  0  0  0  0  0  0  0  0  0  0  0
   27.7700  -13.6810   86.1000 O   0  0  0  0  0  0  0  0  0  0  0  0
   25.6810  -14.7520   87.8700 N   0  0  0  0  0  0  0  0  0  0  0  0
   24.6420  -14.7890   88.7570 C   0  0  0  0  0  0  0  0  0  0  0  0
   24.2780  -13.4990   89.0860 C   0  0  0  0  0  0  0  0  0  0  0  0
   20.7580  -10.4150   86.0810 C   0  0  0  0  0  0  0  0  0  0  0  0
   23.1900  -13.1350   90.0140 C   0  0  1  0  0  0  0  0  0  0  0  0
   22.8810  -11.6520   90.0820 C   0  0  2  0  0  0  0  0  0  0  0  0
   23.0490  -11.1870   91.4140 O   0  0  0  0  0  0  0  0  0  0  0  0
   21.4370  -11.4680   89.6700 C   0  0  2  0  0  0  0  0  0  0  0  0
   20.6300  -11.2740   90.8230 O   0  0  0  0  0  0  0  0  0  0  0  0
   21.0240  -12.7470   88.9880 C   0  0  2  0  0  0  0  0  0  0  0  0
   21.9190  -13.7720   89.5760 N   0  3  0  0  0  0  0  0  0  0  0  0
   21.3010  -12.6860   87.5030 C   0  0  0  0  0  0  0  0  0  0  0  0
   19.9010  -11.8740   86.7010 S   0  0  0  0  0  0  0  0  0  0  0  0
   27.7020  -11.1110   86.1950 H   0  0  0  0  0  0  0  0  0  0  0  0
   26.3050   -9.7730   87.4080 H   0  0  0  0  0  0  0  0  0  0  0  0
   26.1380  -15.5600   87.4680 H   0  0  0  0  0  0  0  0  0  0  0  0
   24.2430  -15.7380   89.0830 H   0  0  0  0  0  0  0  0  0  0  0  0
   21.7530  -10.3520   86.5240 H   0  0  0  0  0  0  0  0  0  0  0  0
   20.8500  -10.4730   84.9930 H   0  0  0  0  0  0  0  0  0  0  0  0
   20.1950   -9.5170   86.3430 H   0  0  0  0  0  0  0  0  0  0  0  0
   23.3960  -13.5300   91.0120 H   0  0  0  0  0  0  0  0  0  0  0  0
   23.5390  -11.0780   89.4280 H   0  0  0  0  0  0  0  0  0  0  0  0
   23.9210  -11.4940   91.7080 H   0  0  0  0  0  0  0  0  0  0  0  0
   21.3220  -10.6100   89.0040 H   0  0  0  0  0  0  0  0  0  0  0  0
   20.5440  -10.3130   90.9400 H   0  0  0  0  0  0  0  0  0  0  0  0
   19.9920  -13.0280   89.2130 H   0  0  0  0  0  0  0  0  0  0  0  0
   21.4580  -14.2200   90.3780 H   0  0  0  0  0  0  0  0  0  0  0  0
   22.1050  -14.5180   88.8940 H   0  0  0  0  0  0  0  0  0  0  0  0
   21.4160  -13.6910   87.0910 H   0  0  0  0  0  0  0  0  0  0  0  0
   22.2170  -12.1230   87.3100 H   0  0  0  0  0  0  0  0  0  0  0  0
  1  2  1  0  0  0  0
  2  3  2  0  0  0  0
  3  4  1  0  0  0  0
  4  5  2  0  0  0  0
  5  6  1  0  0  0  0
  1  6  1  0  0  0  0
  6  7  2  0  0  0  0
  5  8  1  0  0  0  0
  8  9  1  0  0  0  0
  9 10  2  0  0  0  0
  4 10  1  0  0  0  0
 10 12  1  0  0  0  0
 12 13  1  0  0  0  0
 13 14  1  0  0  0  0
 13 15  1  0  0  0  0
 15 16  1  0  0  0  0
 15 17  1  0  0  0  0
 17 18  1  0  0  0  0
 12 18  1  0  0  0  0
 17 19  1  0  0  0  0
 19 20  1  0  0  0  0
 11 20  1  0  0  0  0
  1 21  1  0  0  0  0
  2 22  1  0  0  0  0
  8 23  1  0  0  0  0
  9 24  1  0  0  0  0
 11 25  1  0  0  0  0
 11 26  1  0  0  0  0
 11 27  1  0  0  0  0
 12 28  1  0  0  0  0
 13 29  1  0  0  0  0
 14 30  1  0  0  0  0
 15 31  1  0  0  0  0
 16 32  1  0  0  0  0
 17 33  1  0  0  0  0
 18 34  1  0  0  0  0
 18 35  1  0  0  0  0
 19 36  1  0  0  0  0
 19 37  1  0  0  0  0
M  CHG  1  18   1
M  END
$$$$
1q1g_deposited_3
  -OEChem-11071115553D

 37 39  0     1  0  0  0  0  0999 V2000
   43.6490   11.4710  113.2540 N   0  0  0  0  0  0  0  0  0  0  0  0
   44.4960   10.9100  112.3150 C   0  0  0  0  0  0  0  0  0  0  0  0
   45.5180   10.1330  112.5110 N   0  0  0  0  0  0  0  0  0  0  0  0
   45.7040    9.8920  113.8750 C   0  0  0  0  0  0  0  0  0  0  0  0
   44.8940   10.4230  114.8410 C   0  0  0  0  0  0  0  0  0  0  0  0
   43.7890   11.2650  114.6050 C   0  0  0  0  0  0  0  0  0  0  0  0
   43.0720   11.7360  115.4760 O   0  0  0  0  0  0  0  0  0  0  0  0
   45.3570    9.9870  116.0480 N   0  0  0  0  0  0  0  0  0  0  0  0
   46.4480    9.1900  115.8430 C   0  0  0  0  0  0  0  0  0  0  0  0
   46.7060    9.1000  114.4900 C   0  0  0  0  0  0  0  0  0  0  0  0
   50.1440   13.0230  112.0480 C   0  0  0  0  0  0  0  0  0  0  0  0
   47.8100    8.3250  113.8910 C   0  0  1  0  0  0  0  0  0  0  0  0
   47.9950    8.5100  112.3990 C   0  0  2  0  0  0  0  0  0  0  0  0
   47.9560    7.2410  111.7620 O   0  0  0  0  0  0  0  0  0  0  0  0
   49.3610    9.1100  112.1750 C   0  0  2  0  0  0  0  0  0  0  0  0
   50.2360    8.1160  111.6650 O   0  0  0  0  0  0  0  0  0  0  0  0
   49.8730    9.5480  113.5220 C   0  0  2  0  0  0  0  0  0  0  0  0
   49.1070    8.7290  114.4920 N   0  3  0  0  0  0  0  0  0  0  0  0
   49.5570   11.0030  113.7700 C   0  0  0  0  0  0  0  0  0  0  0  0
   50.9890   11.9570  113.2290 S   0  0  0  0  0  0  0  0  0  0  0  0
   42.8900   12.0610  112.9310 H   0  0  0  0  0  0  0  0  0  0  0  0
   44.2170   11.1950  111.2880 H   0  0  0  0  0  0  0  0  0  0  0  0
   44.9580   10.2180  116.9480 H   0  0  0  0  0  0  0  0  0  0  0  0
   46.9570    8.7490  116.6860 H   0  0  0  0  0  0  0  0  0  0  0  0
   49.7630   13.9120  112.5570 H   0  0  0  0  0  0  0  0  0  0  0  0
   50.8450   13.3320  111.2690 H   0  0  0  0  0  0  0  0  0  0  0  0
   49.3120   12.4870  111.5870 H   0  0  0  0  0  0  0  0  0  0  0  0
   47.6910    7.2660  114.1280 H   0  0  0  0  0  0  0  0  0  0  0  0
   47.2180    9.1440  111.9710 H   0  0  0  0  0  0  0  0  0  0  0  0
   47.1040    6.8390  111.9970 H   0  0  0  0  0  0  0  0  0  0  0  0
   49.3200    9.9470  111.4750 H   0  0  0  0  0  0  0  0  0  0  0  0
   49.7500    7.2740  111.6900 H   0  0  0  0  0  0  0  0  0  0  0  0
   50.9340    9.3210  113.6570 H   0  0  0  0  0  0  0  0  0  0  0  0
   49.6490    7.8940  114.7480 H   0  0  0  0  0  0  0  0  0  0  0  0
   48.9540    9.2550  115.3620 H   0  0  0  0  0  0  0  0  0  0  0  0
   49.3790   11.1860  114.8320 H   0  0  0  0  0  0  0  0  0  0  0  0
   48.6710   11.3060  113.2070 H   0  0  0  0  0  0  0  0  0  0  0  0
  1  2  1  0  0  0  0
  2  3  2  0  0  0  0
  3  4  1  0  0  0  0
  4  5  2  0  0  0  0
  1  6  1  0  0  0  0
  5  6  1  0  0  0  0
  6  7  2  0  0  0  0
  5  8  1  0  0  0  0
  8  9  1  0  0  0  0
  4 10  1  0  0  0  0
  9 10  2  0  0  0  0
 10 12  1  0  0  0  0
 12 13  1  0  0  0  0
 13 14  1  0  0  0  0
 13 15  1  0  0  0  0
 15 16  1  0  0  0  0
 15 17  1  0  0  0  0
 12 18  1  0  0  0  0
 17 18  1  0  0  0  0
 17 19  1  0  0  0  0
 19 20  1  0  0  0  0
 11 20  1  0  0  0  0
  1 21  1  0  0  0  0
  2 22  1  0  0  0  0
  8 23  1  0  0  0  0
  9 24  1  0  0  0  0
 11 25  1  0  0  0  0
 11 26  1  0  0  0  0
 11 27  1  0  0  0  0
 12 28  1  0  0  0  0
 13 29  1  0  0  0  0
 14 30  1  0  0  0  0
 15 31  1  0  0  0  0
 16 32  1  0  0  0  0
 17 33  1  0  0  0  0
 18 34  1  0  0  0  0
 18 35  1  0  0  0  0
 19 36  1  0  0  0  0
 19 37  1  0  0  0  0
M  CHG  1  18   1
M  END
$$$$
1q1g_deposited_4
  -OEChem-11071115553D

 37 39  0     1  0  0  0  0  0999 V2000
   59.6400    8.9270   91.6400 N   0  0  0  0  0  0  0  0  0  0  0  0
   59.0260    9.4850   92.7460 C   0  0  0  0  0  0  0  0  0  0  0  0
   59.5740   10.0770   93.7610 N   0  0  0  0  0  0  0  0  0  0  0  0
   60.9640   10.1070   93.6270 C   0  0  0  0  0  0  0  0  0  0  0  0
   61.6180    9.5710   92.5530 C   0  0  0  0  0  0  0  0  0  0  0  0
   61.0010    8.9320   91.4620 C   0  0  0  0  0  0  0  0  0  0  0  0
   61.5990    8.4560   90.5080 O   0  0  0  0  0  0  0  0  0  0  0  0
   62.9540    9.7700   92.7420 N   0  0  0  0  0  0  0  0  0  0  0  0
   63.1380   10.4290   93.9250 C   0  0  0  0  0  0  0  0  0  0  0  0
   61.9140   10.6630   94.5190 C   0  0  0  0  0  0  0  0  0  0  0  0
   60.4680    5.9850   97.6190 C   0  0  0  0  0  0  0  0  0  0  0  0
   61.7260   11.3480   95.8140 C   0  0  1  0  0  0  0  0  0  0  0  0
   60.3150   11.3180   96.3680 C   0  0  2  0  0  0  0  0  0  0  0  0
   59.8370   12.6500   96.5210 O   0  0  0  0  0  0  0  0  0  0  0  0
   60.3670   10.6310   97.7160 C   0  0  2  0  0  0  0  0  0  0  0  0
   60.3630   11.5920   98.7610 O   0  0  0  0  0  0  0  0  0  0  0  0
   61.6790    9.8970   97.7660 C   0  0  2  0  0  0  0  0  0  0  0  0
   62.5510   10.6760   96.8520 N   0  3  0  0  0  0  0  0  0  0  0  0
   61.5380    8.4910   97.2250 C   0  0  0  0  0  0  0  0  0  0  0  0
   60.8320    7.4810   98.5480 S   0  0  0  0  0  0  0  0  0  0  0  0
   59.0590    8.4980   90.9280 H   0  0  0  0  0  0  0  0  0  0  0  0
   57.9300    9.3800   92.7030 H   0  0  0  0  0  0  0  0  0  0  0  0
   63.6880    9.4810   92.1090 H   0  0  0  0  0  0  0  0  0  0  0  0
   64.1340   10.6800   94.2530 H   0  0  0  0  0  0  0  0  0  0  0  0
   59.4590    6.0450   97.2040 H   0  0  0  0  0  0  0  0  0  0  0  0
   61.1890    5.8710   96.8080 H   0  0  0  0  0  0  0  0  0  0  0  0
   60.5290    5.1170   98.2790 H   0  0  0  0  0  0  0  0  0  0  0  0
   62.0910   12.3750   95.7550 H   0  0  0  0  0  0  0  0  0  0  0  0
   59.6400   10.7830   95.6970 H   0  0  0  0  0  0  0  0  0  0  0  0
   60.3770   13.0610   97.2170 H   0  0  0  0  0  0  0  0  0  0  0  0
   59.5230    9.9500   97.8490 H   0  0  0  0  0  0  0  0  0  0  0  0
   59.9820   11.1520   99.5400 H   0  0  0  0  0  0  0  0  0  0  0  0
   62.1310    9.9190   98.7610 H   0  0  0  0  0  0  0  0  0  0  0  0
   63.0780   11.3780   97.3860 H   0  0  0  0  0  0  0  0  0  0  0  0
   63.2470   10.0600   96.4150 H   0  0  0  0  0  0  0  0  0  0  0  0
   62.5110    8.0870   96.9350 H   0  0  0  0  0  0  0  0  0  0  0  0
   60.8740    8.4770   96.3570 H   0  0  0  0  0  0  0  0  0  0  0  0
  1  2  1  0  0  0  0
  2  3  2  0  0  0  0
  3  4  1  0  0  0  0
  4  5  2  0  0  0  0
  5  6  1  0  0  0  0
  1  6  1  0  0  0  0
  6  7  2  0  0  0  0
  5  8  1  0  0  0  0
  8  9  1  0  0  0  0
  4 10  1  0  0  0  0
  9 10  2  0  0  0  0
 10 12  1  0  0  0  0
 12 13  1  0  0  0  0
 13 14  1  0  0  0  0
 13 15  1  0  0  0  0
 15 16  1  0  0  0  0
 15 17  1  0  0  0  0
 12 18  1  0  0  0  0
 17 18  1  0  0  0  0
 17 19  1  0  0  0  0
 19 20  1  0  0  0  0
 11 20  1  0  0  0  0
  1 21  1  0  0  0  0
  2 22  1  0  0  0  0
  8 23  1  0  0  0  0
  9 24  1  0  0  0  0
 11 25  1  0  0  0  0
 11 26  1  0  0  0  0
 11 27  1  0  0  0  0
 12 28  1  0  0  0  0
 13 29  1  0  0  0  0
 14 30  1  0  0  0  0
 15 31  1  0  0  0  0
 16 32  1  0  0  0  0
 17 33  1  0  0  0  0
 18 34  1  0  0  0  0
 18 35  1  0  0  0  0
 19 36  1  0  0  0  0
 19 37  1  0  0  0  0
M  CHG  1  18   1
M  END
$$$$
1q1g_deposited_5
  -OEChem-11071115553D

 37 39  0     1  0  0  0  0  0999 V2000
   33.8490   37.7100   86.2140 N   0  0  0  0  0  0  0  0  0  0  0  0
   34.2200   37.0040   85.0840 C   0  0  0  0  0  0  0  0  0  0  0  0
   34.8070   37.4390   84.0120 N   0  0  0  0  0  0  0  0  0  0  0  0
   35.0570   38.8080   84.1020 C   0  0  0  0  0  0  0  0  0  0  0  0
   34.7090   39.5550   85.1950 C   0  0  0  0  0  0  0  0  0  0  0  0
   34.0680   39.0550   86.3540 C   0  0  0  0  0  0  0  0  0  0  0  0
   33.7540   39.7170   87.3330 O   0  0  0  0  0  0  0  0  0  0  0  0
   35.0960   40.8400   84.9440 N   0  0  0  0  0  0  0  0  0  0  0  0
   35.6800   40.8970   83.7080 C   0  0  0  0  0  0  0  0  0  0  0  0
   35.6780   39.6400   83.1360 C   0  0  0  0  0  0  0  0  0  0  0  0
   31.2430   37.8720   79.8240 C   0  0  0  0  0  0  0  0  0  0  0  0
   36.2260   39.3100   81.8030 C   0  0  1  0  0  0  0  0  0  0  0  0
   35.9830   37.8940   81.3180 C   0  0  2  0  0  0  0  0  0  0  0  0
   37.2320   37.2420   81.1420 O   0  0  0  0  0  0  0  0  0  0  0  0
   35.2700   37.9820   79.9870 C   0  0  2  0  0  0  0  0  0  0  0  0
   36.1890   37.8240   78.9110 O   0  0  0  0  0  0  0  0  0  0  0  0
   34.6920   39.3710   79.9340 C   0  0  2  0  0  0  0  0  0  0  0  0
   35.6280   40.1750   80.7550 N   0  3  0  0  0  0  0  0  0  0  0  0
   33.3380   39.4220   80.6020 C   0  0  0  0  0  0  0  0  0  0  0  0
   32.0860   39.3760   79.3010 S   0  0  0  0  0  0  0  0  0  0  0  0
   33.3920   37.2110   86.9710 H   0  0  0  0  0  0  0  0  0  0  0  0
   33.9570   35.9390   85.1650 H   0  0  0  0  0  0  0  0  0  0  0  0
   34.9720   41.6240   85.5720 H   0  0  0  0  0  0  0  0  0  0  0  0
   36.0520   41.8380   83.3340 H   0  0  0  0  0  0  0  0  0  0  0  0
   30.6690   37.4660   78.9880 H   0  0  0  0  0  0  0  0  0  0  0  0
   31.9740   37.1290   80.1490 H   0  0  0  0  0  0  0  0  0  0  0  0
   30.5630   38.0940   80.6500 H   0  0  0  0  0  0  0  0  0  0  0  0
   37.2960   39.5290   81.7830 H   0  0  0  0  0  0  0  0  0  0  0  0
   35.3880   37.3250   82.0340 H   0  0  0  0  0  0  0  0  0  0  0  0
   37.7010   37.7230   80.4410 H   0  0  0  0  0  0  0  0  0  0  0  0
   34.4880   37.2240   79.9050 H   0  0  0  0  0  0  0  0  0  0  0  0
   35.6590   37.6160   78.1240 H   0  0  0  0  0  0  0  0  0  0  0  0
   34.6840   39.7860   78.9230 H   0  0  0  0  0  0  0  0  0  0  0  0
   36.3680   40.5670   80.1590 H   0  0  0  0  0  0  0  0  0  0  0  0
   35.1400   40.9730   81.1790 H   0  0  0  0  0  0  0  0  0  0  0  0
   33.2240   40.3410   81.1810 H   0  0  0  0  0  0  0  0  0  0  0  0
   33.2060   38.5690   81.2720 H   0  0  0  0  0  0  0  0  0  0  0  0
  1  2  1  0  0  0  0
  2  3  2  0  0  0  0
  3  4  1  0  0  0  0
  4  5  2  0  0  0  0
  5  6  1  0  0  0  0
  1  6  1  0  0  0  0
  6  7  2  0  0  0  0
  5  8  1  0  0  0  0
  8  9  1  0  0  0  0
  4 10  1  0  0  0  0
  9 10  2  0  0  0  0
 10 12  1  0  0  0  0
 12 13  1  0  0  0  0
 13 14  1  0  0  0  0
 13 15  1  0  0  0  0
 15 16  1  0  0  0  0
 15 17  1  0  0  0  0
 17 18  1  0  0  0  0
 12 18  1  0  0  0  0
 17 19  1  0  0  0  0
 19 20  1  0  0  0  0
 11 20  1  0  0  0  0
  1 21  1  0  0  0  0
  2 22  1  0  0  0  0
  8 23  1  0  0  0  0
  9 24  1  0  0  0  0
 11 25  1  0  0  0  0
 11 26  1  0  0  0  0
 11 27  1  0  0  0  0
 12 28  1  0  0  0  0
 13 29  1  0  0  0  0
 14 30  1  0  0  0  0
 15 31  1  0  0  0  0
 16 32  1  0  0  0  0
 17 33  1  0  0  0  0
 18 34  1  0  0  0  0
 18 35  1  0  0  0  0
 19 36  1  0  0  0  0
 19 37  1  0  0  0  0
M  CHG  1  18   1
M  END
$$$$
1q1g_deposited_6
  -OEChem-11071115553D

 37 39  0     1  0  0  0  0  0999 V2000
   33.1410   20.4110   65.4300 N   0  0  0  0  0  0  0  0  0  0  0  0
   32.7750   21.3640   66.3660 C   0  0  0  0  0  0  0  0  0  0  0  0
   32.1110   22.4650   66.1780 N   0  0  0  0  0  0  0  0  0  0  0  0
   31.7600   22.6250   64.8340 C   0  0  0  0  0  0  0  0  0  0  0  0
   32.1000   21.7120   63.8730 C   0  0  0  0  0  0  0  0  0  0  0  0
   32.8240   20.5190   64.0970 C   0  0  0  0  0  0  0  0  0  0  0  0
   33.1190   19.7060   63.2320 O   0  0  0  0  0  0  0  0  0  0  0  0
   31.6080   22.1720   62.6870 N   0  0  0  0  0  0  0  0  0  0  0  0
   30.9700   23.3640   62.8990 C   0  0  0  0  0  0  0  0  0  0  0  0
   31.0380   23.6910   64.2380 C   0  0  0  0  0  0  0  0  0  0  0  0
   35.6150   26.2550   66.2990 C   0  0  0  0  0  0  0  0  0  0  0  0
   30.4540   24.9110   64.8390 C   0  0  1  0  0  0  0  0  0  0  0  0
   30.7480   25.1180   66.3120 C   0  0  2  0  0  0  0  0  0  0  0  0
   29.5230   25.1790   67.0220 O   0  0  0  0  0  0  0  0  0  0  0  0
   31.4510   26.4480   66.4560 C   0  0  2  0  0  0  0  0  0  0  0  0
   30.5420   27.4480   66.8840 O   0  0  0  0  0  0  0  0  0  0  0  0
   31.9320   26.8090   65.0790 C   0  0  2  0  0  0  0  0  0  0  0  0
   30.9720   26.1340   64.1800 N   0  3  0  0  0  0  0  0  0  0  0  0
   33.3060   26.2320   64.8310 C   0  0  0  0  0  0  0  0  0  0  0  0
   34.4980   27.4130   65.4970 S   0  0  0  0  0  0  0  0  0  0  0  0
   33.6640   19.5990   65.7410 H   0  0  0  0  0  0  0  0  0  0  0  0
   33.1200   21.1010   67.3780 H   0  0  0  0  0  0  0  0  0  0  0  0
   31.7030   21.7070   61.7940 H   0  0  0  0  0  0  0  0  0  0  0  0
   30.5140   23.8830   62.0710 H   0  0  0  0  0  0  0  0  0  0  0  0
   36.3890   25.9420   65.5940 H   0  0  0  0  0  0  0  0  0  0  0  0
   36.0860   26.7370   67.1560 H   0  0  0  0  0  0  0  0  0  0  0  0
   35.0580   25.3820   66.6440 H   0  0  0  0  0  0  0  0  0  0  0  0
   29.3760   24.9260   64.6670 H   0  0  0  0  0  0  0  0  0  0  0  0
   31.3560   24.3100   66.7210 H   0  0  0  0  0  0  0  0  0  0  0  0
   28.9870   24.4290   66.7190 H   0  0  0  0  0  0  0  0  0  0  0  0
   32.2800   26.3870   67.1640 H   0  0  0  0  0  0  0  0  0  0  0  0
   29.6740   27.0200   66.9710 H   0  0  0  0  0  0  0  0  0  0  0  0
   31.8830   27.8830   64.8840 H   0  0  0  0  0  0  0  0  0  0  0  0
   30.1950   26.7690   63.9580 H   0  0  0  0  0  0  0  0  0  0  0  0
   31.4230   25.8990   63.2870 H   0  0  0  0  0  0  0  0  0  0  0  0
   33.4860   26.0960   63.7630 H   0  0  0  0  0  0  0  0  0  0  0  0
   33.4150   25.2680   65.3340 H   0  0  0  0  0  0  0  0  0  0  0  0
  1  2  1  0  0  0  0
  2  3  2  0  0  0  0
  3  4  1  0  0  0  0
  4  5  2  0  0  0  0
  5  6  1  0  0  0  0
  1  6  1  0  0  0  0
  6  7  2  0  0  0  0
  5  8  1  0  0  0  0
  8  9  1  0  0  0  0
  9 10  2  0  0  0  0
  4 10  1  0  0  0  0
 10 12  1  0  0  0  0
 12 13  1  0  0  0  0
 13 14  1  0  0  0  0
 13 15  1  0  0  0  0
 15 16  1  0  0  0  0
 15 17  1  0  0  0  0
 12 18  1  0  0  0  0
 17 18  1  0  0  0  0
 17 19  1  0  0  0  0
 19 20  1  0  0  0  0
 11 20  1  0  0  0  0
  1 21  1  0  0  0  0
  2 22  1  0  0  0  0
  8 23  1  0  0  0  0
  9 24  1  0  0  0  0
 11 25  1  0  0  0  0
 11 26  1  0  0  0  0
 11 27  1  0  0  0  0
 12 28  1  0  0  0  0
 13 29  1  0  0  0  0
 14 30  1  0  0  0  0
 15 31  1  0  0  0  0
 16 32  1  0  0  0  0
 17 33  1  0  0  0  0
 18 34  1  0  0  0  0
 18 35  1  0  0  0  0
 19 36  1  0  0  0  0
 19 37  1  0  0  0  0
M  CHG  1  18   1
M  END
$$$$
