1br6_deposited_1
  -OEChem-11071115553D

 34 36  0     0  0  0  0  0  0999 V2000
   -0.5190    0.6060   11.1870 O   0  0  0  0  0  0  0  0  0  0  0  0
    0.6140    0.7590   10.7500 C   0  0  0  0  0  0  0  0  0  0  0  0
    0.8120    1.3790    9.4500 C   0  0  0  0  0  0  0  0  0  0  0  0
    1.7710    0.3900   11.3820 N   0  0  0  0  0  0  0  0  0  0  0  0
    2.0910    1.5370    8.9780 C   0  0  0  0  0  0  0  0  0  0  0  0
   -0.2970    1.7490    8.8130 N   0  0  0  0  0  0  0  0  0  0  0  0
    3.0240    0.5780   10.8570 C   0  0  0  0  0  0  0  0  0  0  0  0
    2.3300    2.1010    7.7920 N   0  0  0  0  0  0  0  0  0  0  0  0
    3.2170    1.1260    9.6990 N   0  0  0  0  0  0  0  0  0  0  0  0
   -0.0500    2.3030    7.6260 C   0  0  0  0  0  0  0  0  0  0  0  0
    4.0360    0.1340   11.6660 N   0  0  0  0  0  0  0  0  0  0  0  0
    1.2260    2.4740    7.1420 C   0  0  0  0  0  0  0  0  0  0  0  0
   -1.1990    2.7830    6.8010 C   0  0  0  0  0  0  0  0  0  0  0  0
   -0.8590    4.1700    6.5520 N   0  0  0  0  0  0  0  0  0  0  0  0
   -0.7260    5.0440    7.6530 C   0  0  0  0  0  0  0  0  0  0  0  0
   -0.3400    6.3470    7.4310 C   0  0  0  0  0  0  0  0  0  0  0  0
   -0.9790    4.6420    8.9490 C   0  0  0  0  0  0  0  0  0  0  0  0
   -0.1920    7.2260    8.4780 C   0  0  0  0  0  0  0  0  0  0  0  0
   -0.8410    5.5200   10.0000 C   0  0  0  0  0  0  0  0  0  0  0  0
   -0.4440    6.8160    9.7670 C   0  0  0  0  0  0  0  0  0  0  0  0
   -0.2820    7.7630   10.8840 C   0  0  0  0  0  0  0  0  0  0  0  0
    0.7910    8.4240   10.8850 O   0  0  0  0  0  0  0  0  0  0  0  0
   -1.2120    7.8180   11.7360 O   0  5  0  0  0  0  0  0  0  0  0  0
    1.6970   -0.0480   12.2930 H   0  0  0  0  0  0  0  0  0  0  0  0
    5.0150    0.2140   11.3960 H   0  0  0  0  0  0  0  0  0  0  0  0
    3.8550   -0.2930   12.5730 H   0  0  0  0  0  0  0  0  0  0  0  0
    1.3890    2.9350    6.1750 H   0  0  0  0  0  0  0  0  0  0  0  0
   -1.2620    2.2230    5.8650 H   0  0  0  0  0  0  0  0  0  0  0  0
   -2.1390    2.6990    7.3520 H   0  0  0  0  0  0  0  0  0  0  0  0
   -0.6310    4.5050    5.6160 H   0  0  0  0  0  0  0  0  0  0  0  0
   -0.1330    6.6820    6.4190 H   0  0  0  0  0  0  0  0  0  0  0  0
   -1.2940    3.6250    9.1560 H   0  0  0  0  0  0  0  0  0  0  0  0
    0.1220    8.2470    8.2850 H   0  0  0  0  0  0  0  0  0  0  0  0
   -1.0400    5.1870   11.0140 H   0  0  0  0  0  0  0  0  0  0  0  0
  1  2  2  0  0  0  0
  2  3  1  0  0  0  0
  2  4  1  0  0  0  0
  3  5  2  0  0  0  0
  3  6  1  0  0  0  0
  4  7  1  0  0  0  0
  5  8  1  0  0  0  0
  7  9  2  0  0  0  0
  5  9  1  0  0  0  0
  6 10  2  0  0  0  0
  7 11  1  0  0  0  0
 10 12  1  0  0  0  0
  8 12  2  0  0  0  0
 10 13  1  0  0  0  0
 13 14  1  0  0  0  0
 14 15  1  0  0  0  0
 15 16  2  0  0  0  0
 15 17  1  0  0  0  0
 16 18  1  0  0  0  0
 17 19  2  0  0  0  0
 18 20  2  0  0  0  0
 19 20  1  0  0  0  0
 20 21  1  0  0  0  0
 21 22  2  0  0  0  0
 21 23  1  0  0  0  0
  4 24  1  0  0  0  0
 11 25  1  0  0  0  0
 11 26  1  0  0  0  0
 12 27  1  0  0  0  0
 13 28  1  0  0  0  0
 13 29  1  0  0  0  0
 14 30  1  0  0  0  0
 16 31  1  0  0  0  0
 17 32  1  0  0  0  0
 18 33  1  0  0  0  0
 19 34  1  0  0  0  0
M  CHG  1  23  -1
M  END
$$$$
