1hgh_deposited_1
  -OEChem-11071115553D

 42 42  0     1  0  0  0  0  0999 V2000
   -7.5390   71.7350   28.4420 C   0  0  0  0  0  0  0  0  0  0  0  0
   -8.3660   72.8920   27.8690 C   0  0  1  0  0  0  0  0  0  0  0  0
   -9.7370   72.4930   27.7570 O   0  0  0  0  0  0  0  0  0  0  0  0
   -8.2610   73.9570   28.9530 C   0  0  0  0  0  0  0  0  0  0  0  0
   -6.8810   74.5790   29.0010 C   0  0  2  0  0  0  0  0  0  0  0  0
   -6.9020   75.7110   29.8510 O   0  0  0  0  0  0  0  0  0  0  0  0
   -6.4650   75.0500   27.6330 C   0  0  1  0  0  0  0  0  0  0  0  0
   -5.1320   75.5850   27.7270 N   0  0  0  0  0  0  0  0  0  0  0  0
   -6.5040   73.8410   26.7350 C   0  0  1  0  0  0  0  0  0  0  0  0
   -7.8420   73.3660   26.6250 O   0  0  0  0  0  0  0  0  0  0  0  0
   -6.0790   74.1940   25.3410 C   0  0  2  0  0  0  0  0  0  0  0  0
   -6.8870   75.2680   24.8990 O   0  0  0  0  0  0  0  0  0  0  0  0
   -6.3320   73.0080   24.4440 C   0  0  2  0  0  0  0  0  0  0  0  0
   -5.6160   71.8920   24.9520 O   0  0  0  0  0  0  0  0  0  0  0  0
   -5.8320   73.3120   23.0570 C   0  0  0  0  0  0  0  0  0  0  0  0
   -5.7420   72.0910   22.3450 O   0  0  0  0  0  0  0  0  0  0  0  0
   -4.7700   76.7370   27.0680 C   0  0  0  0  0  0  0  0  0  0  0  0
   -5.4640   77.3730   26.2890 O   0  0  0  0  0  0  0  0  0  0  0  0
   -3.3770   77.1550   27.4130 C   0  0  0  0  0  0  0  0  0  0  0  0
   -9.8780   71.3510   26.9170 C   0  0  0  0  0  0  0  0  0  0  0  0
   -7.7590   71.4680   29.6590 O   0  5  0  0  0  0  0  0  0  0  0  0
   -6.7330   71.1750   27.6480 O   0  0  0  0  0  0  0  0  0  0  0  0
   -6.1520   73.8670   29.3960 H   0  0  0  0  0  0  0  0  0  0  0  0
   -7.1310   75.8370   27.2710 H   0  0  0  0  0  0  0  0  0  0  0  0
   -5.8680   73.0500   27.1360 H   0  0  0  0  0  0  0  0  0  0  0  0
   -5.0290   74.4960   25.3090 H   0  0  0  0  0  0  0  0  0  0  0  0
   -7.3960   72.7580   24.4190 H   0  0  0  0  0  0  0  0  0  0  0  0
   -3.0690   76.6710   28.3440 H   0  0  0  0  0  0  0  0  0  0  0  0
   -9.2140   71.4410   26.0540 H   0  0  0  0  0  0  0  0  0  0  0  0
   -9.6260   70.4500   27.4820 H   0  0  0  0  0  0  0  0  0  0  0  0
  -10.9140   71.2860   26.5730 H   0  0  0  0  0  0  0  0  0  0  0  0
   -3.3490   78.2410   27.5370 H   0  0  0  0  0  0  0  0  0  0  0  0
   -2.7030   76.8600   26.6040 H   0  0  0  0  0  0  0  0  0  0  0  0
   -8.4980   73.5210   29.9270 H   0  0  0  0  0  0  0  0  0  0  0  0
   -8.9980   74.7400   28.7570 H   0  0  0  0  0  0  0  0  0  0  0  0
   -4.8430   73.7760   23.0900 H   0  0  0  0  0  0  0  0  0  0  0  0
   -6.5220   73.9780   22.5330 H   0  0  0  0  0  0  0  0  0  0  0  0
   -4.4450   75.0970   28.2930 H   0  0  0  0  0  0  0  0  0  0  0  0
   -7.0500   75.3760   30.7510 H   0  0  0  0  0  0  0  0  0  0  0  0
   -7.8110   74.9820   24.9960 H   0  0  0  0  0  0  0  0  0  0  0  0
   -5.7980   71.1500   24.3520 H   0  0  0  0  0  0  0  0  0  0  0  0
   -6.6510   71.7630   22.2410 H   0  0  0  0  0  0  0  0  0  0  0  0
  1  2  1  0  0  0  0
  2  3  1  0  0  0  0
  2  4  1  0  0  0  0
  4  5  1  0  0  0  0
  5  6  1  0  0  0  0
  5  7  1  0  0  0  0
  7  8  1  0  0  0  0
  7  9  1  0  0  0  0
  9 10  1  0  0  0  0
  2 10  1  0  0  0  0
  9 11  1  0  0  0  0
 11 12  1  0  0  0  0
 11 13  1  0  0  0  0
 13 14  1  0  0  0  0
 13 15  1  0  0  0  0
 15 16  1  0  0  0  0
  8 17  1  0  0  0  0
 17 18  2  0  0  0  0
 17 19  1  0  0  0  0
  3 20  1  0  0  0  0
  1 21  1  0  0  0  0
  1 22  2  0  0  0  0
  5 23  1  0  0  0  0
  7 24  1  0  0  0  0
  9 25  1  0  0  0  0
 11 26  1  0  0  0  0
 13 27  1  0  0  0  0
 19 28  1  0  0  0  0
 20 29  1  0  0  0  0
 20 30  1  0  0  0  0
 20 31  1  0  0  0  0
 19 32  1  0  0  0  0
 19 33  1  0  0  0  0
  4 34  1  0  0  0  0
  4 35  1  0  0  0  0
 15 36  1  0  0  0  0
 15 37  1  0  0  0  0
  8 38  1  0  0  0  0
  6 39  1  0  0  0  0
 12 40  1  0  0  0  0
 14 41  1  0  0  0  0
 16 42  1  0  0  0  0
M  CHG  1  21  -1
M  END
