1hgh_deposited_5
     RDKit          3D

 42 42  0  0  0  0  0  0  0  0999 V2000
   24.9300   90.7170    1.2950 C   0  0  0  0  0  0  0  0  0  0  0  0
   23.7970   91.7130    1.0660 C   0  0  1  0  0  0  0  0  0  0  0  0
   23.8470   92.7110    2.0970 O   0  0  0  0  0  0  0  0  0  0  0  0
   24.1390   92.3910   -0.2510 C   0  0  0  0  0  0  0  0  0  0  0  0
   23.8970   91.5290   -1.4740 C   0  0  2  0  0  0  0  0  0  0  0  0
   23.9340   92.3610   -2.6270 O   0  0  0  0  0  0  0  0  0  0  0  0
   22.5330   90.8940   -1.4180 C   0  0  1  0  0  0  0  0  0  0  0  0
   22.3690   89.9900   -2.5370 N   0  0  0  0  0  0  0  0  0  0  0  0
   22.4380   90.1570   -0.1040 C   0  0  1  0  0  0  0  0  0  0  0  0
   22.5310   91.0660    0.9870 O   0  0  0  0  0  0  0  0  0  0  0  0
   21.1050   89.4650    0.0160 C   0  0  2  0  0  0  0  0  0  0  0  0
   20.0590   90.4020   -0.1540 O   0  0  0  0  0  0  0  0  0  0  0  0
   21.0110   88.8630    1.3890 C   0  0  2  0  0  0  0  0  0  0  0  0
   22.0010   87.8420    1.4550 O   0  0  0  0  0  0  0  0  0  0  0  0
   19.6270   88.2900    1.5910 C   0  0  0  0  0  0  0  0  0  0  0  0
   19.6830   87.2460    2.5460 O   0  0  0  0  0  0  0  0  0  0  0  0
   21.1890   89.9500   -3.2460 C   0  0  0  0  0  0  0  0  0  0  0  0
   20.1180   90.4470   -2.9210 O   0  0  0  0  0  0  0  0  0  0  0  0
   21.3620   89.1950   -4.5190 C   0  0  0  0  0  0  0  0  0  0  0  0
   23.6340   92.1790    3.4070 C   0  0  0  0  0  0  0  0  0  0  0  0
   26.0970   91.1660    1.1380 O   0  0  0  0  0  0  0  0  0  0  0  0
   24.5750   89.5540    1.6200 O   0  0  0  0  0  0  0  0  0  0  0  0
   24.6740   90.7660   -1.5670 H   0  0  0  0  0  0  0  0  0  0  0  0
   21.7560   91.6590   -1.4880 H   0  0  0  0  0  0  0  0  0  0  0  0
   23.2450   89.4250   -0.0290 H   0  0  0  0  0  0  0  0  0  0  0  0
   21.0020   88.6920   -0.7480 H   0  0  0  0  0  0  0  0  0  0  0  0
   21.2280   89.6090    2.1580 H   0  0  0  0  0  0  0  0  0  0  0  0
   21.3190   88.1230   -4.3110 H   0  0  0  0  0  0  0  0  0  0  0  0
   22.8190   91.4510    3.3820 H   0  0  0  0  0  0  0  0  0  0  0  0
   23.3720   92.9950    4.0860 H   0  0  0  0  0  0  0  0  0  0  0  0
   24.5490   91.6940    3.7570 H   0  0  0  0  0  0  0  0  0  0  0  0
   20.5600   89.4680   -5.2110 H   0  0  0  0  0  0  0  0  0  0  0  0
   22.3300   89.4470   -4.9600 H   0  0  0  0  0  0  0  0  0  0  0  0
   23.5370   93.2990   -0.3410 H   0  0  0  0  0  0  0  0  0  0  0  0
   25.1870   92.7020   -0.2380 H   0  0  0  0  0  0  0  0  0  0  0  0
   18.9400   89.0590    1.9540 H   0  0  0  0  0  0  0  0  0  0  0  0
   19.2390   87.8830    0.6540 H   0  0  0  0  0  0  0  0  0  0  0  0
   23.1350   89.3790   -2.8000 H   0  0  0  0  0  0  0  0  0  0  0  0
   24.8720   92.4810   -2.8510 H   0  0  0  0  0  0  0  0  0  0  0  0
   20.0930   90.9990    0.6140 H   0  0  0  0  0  0  0  0  0  0  0  0
   21.9580   87.4720    2.3530 H   0  0  0  0  0  0  0  0  0  0  0  0
   19.6500   87.6700    3.4210 H   0  0  0  0  0  0  0  0  0  0  0  0
  1  2  1  0
  1 21  1  0
  1 22  2  0
  2  3  1  1
  2  4  1  0
  2 10  1  0
  3 20  1  0
  4  5  1  0
  4 34  1  0
  4 35  1  0
  5  6  1  0
  5  7  1  0
  5 23  1  6
  6 39  1  0
  7  8  1  0
  7  9  1  0
  7 24  1  1
  8 17  1  0
  8 38  1  0
  9 10  1  0
  9 11  1  0
  9 25  1  1
 11 12  1  0
 11 13  1  0
 11 26  1  6
 12 40  1  0
 13 14  1  0
 13 15  1  0
 13 27  1  1
 14 41  1  0
 15 16  1  0
 15 36  1  0
 15 37  1  0
 16 42  1  0
 17 18  2  0
 17 19  1  0
 19 28  1  0
 19 32  1  0
 19 33  1  0
 20 29  1  0
 20 30  1  0
 20 31  1  0
M  CHG  1  21  -1
M  END
