1HGJ_AMN_A_349
     RDKit          3D

 22 22  0  0  0  0  0  0  0  0999 V2000
   -7.6260   72.3680   28.8040 C   0  0  0  0  0  0  0  0  0  0  0  0
   -8.2630   73.6760   28.2840 C   0  0  0  0  0  0  0  0  0  0  0  0
   -8.0700   74.8110   29.3200 C   0  0  0  0  0  0  0  0  0  0  0  0
   -6.6270   75.2970   29.3750 C   0  0  0  0  0  0  0  0  0  0  0  0
   -6.1930   75.7220   27.9490 C   0  0  0  0  0  0  0  0  0  0  0  0
   -6.3400   74.5170   27.0180 C   0  0  0  0  0  0  0  0  0  0  0  0
   -5.9790   74.6750   25.5450 C   0  0  0  0  0  0  0  0  0  0  0  0
   -6.4190   73.4360   24.7480 C   0  0  0  0  0  0  0  0  0  0  0  0
   -6.0190   73.5480   23.2830 C   0  0  0  0  0  0  0  0  0  0  0  0
   -4.3420   77.2200   27.4080 C   0  0  0  0  0  0  0  0  0  0  0  0
   -2.9150   77.6600   27.7030 C   0  0  0  0  0  0  0  0  0  0  0  0
   -9.9920   72.4180   27.1150 C   0  0  0  0  0  0  0  0  0  0  0  0
   -4.8150   76.1660   28.0560 N   0  0  0  0  0  0  0  0  0  0  0  0
   -6.2100   72.1690   22.7750 N   0  0  0  0  0  0  0  0  0  0  0  0
   -7.8530   72.0310   29.9600 O   0  0  0  0  0  0  0  0  0  0  0  0
   -6.8960   71.6750   28.0820 O   0  0  0  0  0  0  0  0  0  0  0  0
   -9.6630   73.4300   28.0860 O   0  0  0  0  0  0  0  0  0  0  0  0
   -6.4270   76.3690   30.3050 O   0  0  0  0  0  0  0  0  0  0  0  0
   -7.6870   74.0810   27.0330 O   0  0  0  0  0  0  0  0  0  0  0  0
   -6.6310   75.8090   25.0200 O   0  0  0  0  0  0  0  0  0  0  0  0
   -5.8880   72.2380   25.2440 O   0  0  0  0  0  0  0  0  0  0  0  0
   -5.0290   77.7790   26.5580 O   0  0  0  0  0  0  0  0  0  0  0  0
  1  2  1  0
  1 15  2  0
  1 16  1  0
  2  3  1  0
  2 17  1  0
  2 19  1  0
  3  4  1  0
  4  5  1  0
  4 18  1  0
  5  6  1  0
  5 13  1  0
  6  7  1  0
  6 19  1  0
  7  8  1  0
  7 20  1  0
  8  9  1  0
  8 21  1  0
  9 14  1  0
 10 11  1  0
 10 13  1  0
 10 22  2  0
 12 17  1  0
A    1
C1
A    2
C2
A    3
C3
A    4
C4
A    5
C5
A    6
C6
A    7
C7
A    8
C8
A    9
C9
A   10
C10
A   11
C11
A   12
C12
A   13
N5
A   14
N9
A   15
O1A
A   16
O1B
A   17
O2
A   18
O4
A   19
O6
A   20
O7
A   21
O8
A   22
O10
M  END
