1hgj_deposited_1
  -OEChem-11071115553D

 44 44  0     1  0  0  0  0  0999 V2000
   -7.6670   72.3890   28.9620 C   0  0  0  0  0  0  0  0  0  0  0  0
   -8.3690   73.6400   28.4350 C   0  0  1  0  0  0  0  0  0  0  0  0
   -9.7670   73.3630   28.3880 O   0  0  0  0  0  0  0  0  0  0  0  0
   -8.1120   74.6590   29.5330 C   0  0  0  0  0  0  0  0  0  0  0  0
   -6.6850   75.1540   29.5040 C   0  0  2  0  0  0  0  0  0  0  0  0
   -6.5700   76.2620   30.3900 O   0  0  0  0  0  0  0  0  0  0  0  0
   -6.3040   75.5750   28.1010 C   0  0  1  0  0  0  0  0  0  0  0  0
   -4.9310   76.0020   28.0710 N   0  0  0  0  0  0  0  0  0  0  0  0
   -6.4820   74.3620   27.2280 C   0  0  1  0  0  0  0  0  0  0  0  0
   -7.8710   74.0850   27.1720 O   0  0  0  0  0  0  0  0  0  0  0  0
   -6.0300   74.5760   25.8050 C   0  0  2  0  0  0  0  0  0  0  0  0
   -6.6640   75.7360   25.2920 O   0  0  0  0  0  0  0  0  0  0  0  0
   -6.4760   73.3880   24.9770 C   0  0  2  0  0  0  0  0  0  0  0  0
   -5.9240   72.2130   25.5550 O   0  0  0  0  0  0  0  0  0  0  0  0
   -5.9870   73.5180   23.5490 C   0  0  0  0  0  0  0  0  0  0  0  0
   -6.3690   72.2860   22.8100 N   0  3  0  0  0  0  0  0  0  0  0  0
   -4.5880   77.2090   27.5210 C   0  0  0  0  0  0  0  0  0  0  0  0
   -5.3170   77.9180   26.8410 O   0  0  0  0  0  0  0  0  0  0  0  0
   -3.1780   77.5830   27.8470 C   0  0  0  0  0  0  0  0  0  0  0  0
  -10.0410   72.4100   27.3650 C   0  0  0  0  0  0  0  0  0  0  0  0
   -7.7420   72.2530   30.2160 O   0  0  0  0  0  0  0  0  0  0  0  0
   -7.1040   71.6450   28.0960 O   0  5  0  0  0  0  0  0  0  0  0  0
   -8.3280   74.2200   30.5110 H   0  0  0  0  0  0  0  0  0  0  0  0
   -8.7890   75.5060   29.3990 H   0  0  0  0  0  0  0  0  0  0  0  0
   -6.0090   74.3710   29.8560 H   0  0  0  0  0  0  0  0  0  0  0  0
   -7.1130   76.9770   30.0160 H   0  0  0  0  0  0  0  0  0  0  0  0
   -6.9320   76.4010   27.7580 H   0  0  0  0  0  0  0  0  0  0  0  0
   -4.2130   75.4010   28.4630 H   0  0  0  0  0  0  0  0  0  0  0  0
   -5.9600   73.5070   27.6620 H   0  0  0  0  0  0  0  0  0  0  0  0
   -4.9470   74.7090   25.7510 H   0  0  0  0  0  0  0  0  0  0  0  0
   -6.0470   76.4760   25.4340 H   0  0  0  0  0  0  0  0  0  0  0  0
   -7.5650   73.3000   24.9920 H   0  0  0  0  0  0  0  0  0  0  0  0
   -6.6530   71.7640   26.0200 H   0  0  0  0  0  0  0  0  0  0  0  0
   -4.8960   73.6040   23.5000 H   0  0  0  0  0  0  0  0  0  0  0  0
   -5.7740   72.1560   21.9800 H   0  0  0  0  0  0  0  0  0  0  0  0
   -6.4540   74.3640   23.0340 H   0  0  0  0  0  0  0  0  0  0  0  0
   -6.2660   71.4470   23.4030 H   0  0  0  0  0  0  0  0  0  0  0  0
   -7.3520   72.3290   22.4930 H   0  0  0  0  0  0  0  0  0  0  0  0
   -2.5090   77.1670   27.0840 H   0  0  0  0  0  0  0  0  0  0  0  0
   -2.9150   77.1790   28.8310 H   0  0  0  0  0  0  0  0  0  0  0  0
   -3.0900   78.6760   27.8590 H   0  0  0  0  0  0  0  0  0  0  0  0
   -9.5280   72.6970   26.4430 H   0  0  0  0  0  0  0  0  0  0  0  0
   -9.7000   71.4210   27.6830 H   0  0  0  0  0  0  0  0  0  0  0  0
  -11.1190   72.3800   27.1850 H   0  0  0  0  0  0  0  0  0  0  0  0
  1  2  1  0  0  0  0
  2  3  1  0  0  0  0
  2  4  1  0  0  0  0
  4  5  1  0  0  0  0
  5  6  1  0  0  0  0
  5  7  1  0  0  0  0
  7  8  1  0  0  0  0
  7  9  1  0  0  0  0
  9 10  1  0  0  0  0
  2 10  1  0  0  0  0
  9 11  1  0  0  0  0
 11 12  1  0  0  0  0
 11 13  1  0  0  0  0
 13 14  1  0  0  0  0
 13 15  1  0  0  0  0
 15 16  1  0  0  0  0
  8 17  1  0  0  0  0
 17 18  2  0  0  0  0
 17 19  1  0  0  0  0
  3 20  1  0  0  0  0
  1 21  2  0  0  0  0
  1 22  1  0  0  0  0
  4 23  1  0  0  0  0
  4 24  1  0  0  0  0
  5 25  1  0  0  0  0
  6 26  1  0  0  0  0
  7 27  1  0  0  0  0
  8 28  1  0  0  0  0
  9 29  1  0  0  0  0
 11 30  1  0  0  0  0
 12 31  1  0  0  0  0
 13 32  1  0  0  0  0
 14 33  1  0  0  0  0
 15 34  1  0  0  0  0
 16 35  1  0  0  0  0
 15 36  1  0  0  0  0
 16 37  1  0  0  0  0
 16 38  1  0  0  0  0
 19 39  1  0  0  0  0
 19 40  1  0  0  0  0
 19 41  1  0  0  0  0
 20 42  1  0  0  0  0
 20 43  1  0  0  0  0
 20 44  1  0  0  0  0
M  CHG  2  16   1  22  -1
M  END
$$$$
1hgj_deposited_2
  -OEChem-11071115553D

 44 44  0     1  0  0  0  0  0999 V2000
   -7.3030   62.4450  -17.2600 C   0  0  0  0  0  0  0  0  0  0  0  0
   -8.0890   63.7620  -17.3190 C   0  0  1  0  0  0  0  0  0  0  0  0
   -7.7980   64.3880  -18.5700 O   0  0  0  0  0  0  0  0  0  0  0  0
   -9.5500   63.3390  -17.2980 C   0  0  0  0  0  0  0  0  0  0  0  0
   -9.9240   62.7540  -15.9520 C   0  0  2  0  0  0  0  0  0  0  0  0
  -11.3230   62.5150  -15.8890 O   0  0  0  0  0  0  0  0  0  0  0  0
   -9.5430   63.7080  -14.8450 C   0  0  1  0  0  0  0  0  0  0  0  0
   -9.8490   63.0760  -13.5830 N   0  0  0  0  0  0  0  0  0  0  0  0
   -8.0590   63.9400  -14.9860 C   0  0  1  0  0  0  0  0  0  0  0  0
   -7.8170   64.6170  -16.2080 O   0  0  0  0  0  0  0  0  0  0  0  0
   -7.4790   64.8130  -13.9100 C   0  0  2  0  0  0  0  0  0  0  0  0
   -8.2050   66.0240  -13.8540 O   0  0  0  0  0  0  0  0  0  0  0  0
   -6.0480   65.1100  -14.2980 C   0  0  2  0  0  0  0  0  0  0  0  0
   -5.3740   63.8580  -14.3770 O   0  0  0  0  0  0  0  0  0  0  0  0
   -5.3670   65.9840  -13.2640 C   0  0  0  0  0  0  0  0  0  0  0  0
   -3.9270   66.0740  -13.6120 N   0  3  0  0  0  0  0  0  0  0  0  0
  -10.4100   63.7870  -12.5550 C   0  0  0  0  0  0  0  0  0  0  0  0
  -10.5330   65.0010  -12.5090 O   0  0  0  0  0  0  0  0  0  0  0  0
  -10.8710   62.8930  -11.4560 C   0  0  0  0  0  0  0  0  0  0  0  0
   -6.4010   64.6760  -18.6460 C   0  0  0  0  0  0  0  0  0  0  0  0
   -7.5760   61.6080  -18.1700 O   0  0  0  0  0  0  0  0  0  0  0  0
   -6.4680   62.3450  -16.3120 O   0  5  0  0  0  0  0  0  0  0  0  0
   -9.7350   62.6010  -18.0830 H   0  0  0  0  0  0  0  0  0  0  0  0
  -10.1820   64.2070  -17.5040 H   0  0  0  0  0  0  0  0  0  0  0  0
   -9.4170   61.7960  -15.8080 H   0  0  0  0  0  0  0  0  0  0  0  0
  -11.5250   61.8650  -16.5850 H   0  0  0  0  0  0  0  0  0  0  0  0
  -10.1050   64.6420  -14.9180 H   0  0  0  0  0  0  0  0  0  0  0  0
   -9.6430   62.0900  -13.4590 H   0  0  0  0  0  0  0  0  0  0  0  0
   -7.5390   62.9810  -14.9970 H   0  0  0  0  0  0  0  0  0  0  0  0
   -7.5290   64.3220  -12.9350 H   0  0  0  0  0  0  0  0  0  0  0  0
   -8.8870   65.9080  -13.1690 H   0  0  0  0  0  0  0  0  0  0  0  0
   -6.0070   65.5880  -15.2800 H   0  0  0  0  0  0  0  0  0  0  0  0
   -5.2240   63.6830  -15.3220 H   0  0  0  0  0  0  0  0  0  0  0  0
   -5.4350   65.5540  -12.2610 H   0  0  0  0  0  0  0  0  0  0  0  0
   -3.3910   66.5270  -12.8610 H   0  0  0  0  0  0  0  0  0  0  0  0
   -5.7670   67.0020  -13.2650 H   0  0  0  0  0  0  0  0  0  0  0  0
   -3.5260   65.1390  -13.7590 H   0  0  0  0  0  0  0  0  0  0  0  0
   -3.7850   66.6180  -14.4730 H   0  0  0  0  0  0  0  0  0  0  0  0
  -10.1050   62.8670  -10.6660 H   0  0  0  0  0  0  0  0  0  0  0  0
  -11.0320   61.8800  -11.8540 H   0  0  0  0  0  0  0  0  0  0  0  0
  -11.8140   63.2860  -11.0460 H   0  0  0  0  0  0  0  0  0  0  0  0
   -6.2290   65.3810  -19.4660 H   0  0  0  0  0  0  0  0  0  0  0  0
   -6.0600   65.1240  -17.7050 H   0  0  0  0  0  0  0  0  0  0  0  0
   -5.8430   63.7520  -18.8380 H   0  0  0  0  0  0  0  0  0  0  0  0
  1  2  1  0  0  0  0
  2  3  1  0  0  0  0
  2  4  1  0  0  0  0
  4  5  1  0  0  0  0
  5  6  1  0  0  0  0
  5  7  1  0  0  0  0
  7  8  1  0  0  0  0
  7  9  1  0  0  0  0
  9 10  1  0  0  0  0
  2 10  1  0  0  0  0
  9 11  1  0  0  0  0
 11 12  1  0  0  0  0
 11 13  1  0  0  0  0
 13 14  1  0  0  0  0
 13 15  1  0  0  0  0
 15 16  1  0  0  0  0
  8 17  1  0  0  0  0
 17 18  2  0  0  0  0
 17 19  1  0  0  0  0
  3 20  1  0  0  0  0
  1 21  2  0  0  0  0
  1 22  1  0  0  0  0
  4 23  1  0  0  0  0
  4 24  1  0  0  0  0
  5 25  1  0  0  0  0
  6 26  1  0  0  0  0
  7 27  1  0  0  0  0
  8 28  1  0  0  0  0
  9 29  1  0  0  0  0
 11 30  1  0  0  0  0
 12 31  1  0  0  0  0
 13 32  1  0  0  0  0
 14 33  1  0  0  0  0
 15 34  1  0  0  0  0
 16 35  1  0  0  0  0
 15 36  1  0  0  0  0
 16 37  1  0  0  0  0
 16 38  1  0  0  0  0
 19 39  1  0  0  0  0
 19 40  1  0  0  0  0
 19 41  1  0  0  0  0
 20 42  1  0  0  0  0
 20 43  1  0  0  0  0
 20 44  1  0  0  0  0
M  CHG  2  16   1  22  -1
M  END
$$$$
1hgj_deposited_3
  -OEChem-11071115553D

 44 44  0     1  0  0  0  0  0999 V2000
   25.1440   91.3490    0.8970 C   0  0  0  0  0  0  0  0  0  0  0  0
   23.9550   92.2840    0.6390 C   0  0  1  0  0  0  0  0  0  0  0  0
   23.9540   93.2860    1.6480 O   0  0  0  0  0  0  0  0  0  0  0  0
   24.2490   92.9280   -0.7100 C   0  0  0  0  0  0  0  0  0  0  0  0
   24.0180   91.9640   -1.8550 C   0  0  2  0  0  0  0  0  0  0  0  0
   24.0380   92.7030   -3.0690 O   0  0  0  0  0  0  0  0  0  0  0  0
   22.6830   91.2540   -1.7250 C   0  0  1  0  0  0  0  0  0  0  0  0
   22.5800   90.2170   -2.7240 N   0  0  0  0  0  0  0  0  0  0  0  0
   22.6200   90.6160   -0.3560 C   0  0  1  0  0  0  0  0  0  0  0  0
   22.6990   91.6160    0.6460 O   0  0  0  0  0  0  0  0  0  0  0  0
   21.3080   89.9090   -0.1100 C   0  0  2  0  0  0  0  0  0  0  0  0
   20.2410   90.8330   -0.2730 O   0  0  0  0  0  0  0  0  0  0  0  0
   21.2790   89.3960    1.3170 C   0  0  2  0  0  0  0  0  0  0  0  0
   22.4050   88.5520    1.5420 O   0  0  0  0  0  0  0  0  0  0  0  0
   20.0230   88.5850    1.5420 C   0  0  0  0  0  0  0  0  0  0  0  0
   20.0510   88.0880    2.9360 N   0  3  0  0  0  0  0  0  0  0  0  0
   21.4170   90.0230   -3.4310 C   0  0  0  0  0  0  0  0  0  0  0  0
   20.3340   90.5390   -3.1900 O   0  0  0  0  0  0  0  0  0  0  0  0
   21.6170   89.0770   -4.5720 C   0  0  0  0  0  0  0  0  0  0  0  0
   23.4850   92.7110    2.8680 C   0  0  0  0  0  0  0  0  0  0  0  0
   26.2840   91.8400    0.6510 O   0  0  0  0  0  0  0  0  0  0  0  0
   24.8580   90.1930    1.3290 O   0  5  0  0  0  0  0  0  0  0  0  0
   25.2830   93.2800   -0.7350 H   0  0  0  0  0  0  0  0  0  0  0  0
   23.6030   93.7990   -0.8390 H   0  0  0  0  0  0  0  0  0  0  0  0
   24.8280   91.2310   -1.8960 H   0  0  0  0  0  0  0  0  0  0  0  0
   24.9720   92.7920   -3.3240 H   0  0  0  0  0  0  0  0  0  0  0  0
   21.8580   91.9550   -1.8700 H   0  0  0  0  0  0  0  0  0  0  0  0
   23.3830   89.6240   -2.9040 H   0  0  0  0  0  0  0  0  0  0  0  0
   23.4490   89.9170   -0.2320 H   0  0  0  0  0  0  0  0  0  0  0  0
   21.1710   89.0860   -0.8160 H   0  0  0  0  0  0  0  0  0  0  0  0
   19.8630   90.6670   -1.1550 H   0  0  0  0  0  0  0  0  0  0  0  0
   21.3230   90.2280    2.0250 H   0  0  0  0  0  0  0  0  0  0  0  0
   23.0790   89.1010    1.9790 H   0  0  0  0  0  0  0  0  0  0  0  0
   19.9770   87.7140    0.8810 H   0  0  0  0  0  0  0  0  0  0  0  0
   19.4400   87.2690    3.0490 H   0  0  0  0  0  0  0  0  0  0  0  0
   19.1180   89.1920    1.4290 H   0  0  0  0  0  0  0  0  0  0  0  0
   21.0010   87.8070    3.2110 H   0  0  0  0  0  0  0  0  0  0  0  0
   19.7340   88.8110    3.5960 H   0  0  0  0  0  0  0  0  0  0  0  0
   20.9580   88.2150   -4.4440 H   0  0  0  0  0  0  0  0  0  0  0  0
   22.6580   88.7450   -4.5950 H   0  0  0  0  0  0  0  0  0  0  0  0
   21.3740   89.5880   -5.5080 H   0  0  0  0  0  0  0  0  0  0  0  0
   22.5370   92.1890    2.6970 H   0  0  0  0  0  0  0  0  0  0  0  0
   24.2300   92.0050    3.2520 H   0  0  0  0  0  0  0  0  0  0  0  0
   23.3320   93.5100    3.5990 H   0  0  0  0  0  0  0  0  0  0  0  0
  1  2  1  0  0  0  0
  2  3  1  0  0  0  0
  2  4  1  0  0  0  0
  4  5  1  0  0  0  0
  5  6  1  0  0  0  0
  5  7  1  0  0  0  0
  7  8  1  0  0  0  0
  7  9  1  0  0  0  0
  9 10  1  0  0  0  0
  2 10  1  0  0  0  0
  9 11  1  0  0  0  0
 11 12  1  0  0  0  0
 11 13  1  0  0  0  0
 13 14  1  0  0  0  0
 13 15  1  0  0  0  0
 15 16  1  0  0  0  0
  8 17  1  0  0  0  0
 17 18  2  0  0  0  0
 17 19  1  0  0  0  0
  3 20  1  0  0  0  0
  1 21  2  0  0  0  0
  1 22  1  0  0  0  0
  4 23  1  0  0  0  0
  4 24  1  0  0  0  0
  5 25  1  0  0  0  0
  6 26  1  0  0  0  0
  7 27  1  0  0  0  0
  8 28  1  0  0  0  0
  9 29  1  0  0  0  0
 11 30  1  0  0  0  0
 12 31  1  0  0  0  0
 13 32  1  0  0  0  0
 14 33  1  0  0  0  0
 15 34  1  0  0  0  0
 16 35  1  0  0  0  0
 15 36  1  0  0  0  0
 16 37  1  0  0  0  0
 16 38  1  0  0  0  0
 19 39  1  0  0  0  0
 19 40  1  0  0  0  0
 19 41  1  0  0  0  0
 20 42  1  0  0  0  0
 20 43  1  0  0  0  0
 20 44  1  0  0  0  0
M  CHG  2  16   1  22  -1
M  END
$$$$
