1IVB_ST1_A_471
     RDKit          3D

 17 17  0  0  0  0  0  0  0  0999 V2000
   48.6830   23.1710  -20.3780 C   0  0  0  0  0  0  0  0  0  0  0  0
   49.3150   24.1360  -20.8860 O   0  0  0  0  0  0  0  0  0  0  0  0
   48.7680   22.8780  -19.1660 O   0  0  0  0  0  0  0  0  0  0  0  0
   47.8290   22.4080  -21.1900 C   0  0  0  0  0  0  0  0  0  0  0  0
   47.2560   21.2230  -20.7190 C   0  0  0  0  0  0  0  0  0  0  0  0
   46.3710   20.4830  -21.5030 C   0  0  0  0  0  0  0  0  0  0  0  0
   45.7380   19.3780  -20.9710 O   0  0  0  0  0  0  0  0  0  0  0  0
   46.0570   20.9200  -22.7960 C   0  0  0  0  0  0  0  0  0  0  0  0
   45.1780   20.2130  -23.6090 N   0  0  0  0  0  0  0  0  0  0  0  0
   45.7830   19.1450  -24.1360 C   0  0  0  0  0  0  0  0  0  0  0  0
   46.4270   19.2210  -25.1850 O   0  0  0  0  0  0  0  0  0  0  0  0
   45.6550   17.7960  -23.4490 C   0  0  0  0  0  0  0  0  0  0  0  0
   46.6230   22.0860  -23.2740 C   0  0  0  0  0  0  0  0  0  0  0  0
   46.3780   22.4620  -24.5540 N   0  0  0  0  0  0  0  0  0  0  0  0
   45.2750   22.9490  -24.6670 O   0  0  0  0  0  0  0  0  0  0  0  0
   47.3170   22.2080  -25.2560 O   0  0  0  0  0  0  0  0  0  0  0  0
   47.5050   22.8310  -22.4770 C   0  0  0  0  0  0  0  0  0  0  0  0
  2  1  2  0
  3  1  1  0
  4  1  1  0
  5  4  2  0
  6  5  1  0
  7  6  1  0
  8  6  2  0
  9  8  1  0
 10  9  1  0
 11 10  2  0
 12 10  1  0
 13  8  1  0
 14 13  1  0
 15 14  2  0
 16 14  1  0
 17 13  2  0
 17  4  1  0
M  CHG  2  14   1  16  -1
M  END
