1f0u_deposited_1
  -OEChem-11071115553D

 66 68  0     1  0  0  0  0  0999 V2000
   12.5180  -14.8330   23.4640 C   0  0  0  0  0  0  0  0  0  0  0  0
   12.9110  -13.5740   23.8650 C   0  0  0  0  0  0  0  0  0  0  0  0
   14.0300  -13.4780   24.6660 C   0  0  0  0  0  0  0  0  0  0  0  0
   14.7320  -14.5970   25.0520 C   0  0  0  0  0  0  0  0  0  0  0  0
   14.3280  -15.8440   24.6440 C   0  0  0  0  0  0  0  0  0  0  0  0
   13.2150  -15.9580   23.8480 C   0  0  0  0  0  0  0  0  0  0  0  0
   10.1080  -11.2240   22.9900 C   0  0  0  0  0  0  0  0  0  0  0  0
   10.8090  -10.1000   22.6110 C   0  0  0  0  0  0  0  0  0  0  0  0
   12.1830  -10.1210   22.6480 C   0  0  0  0  0  0  0  0  0  0  0  0
   12.8410  -11.2600   23.0610 C   0  0  0  0  0  0  0  0  0  0  0  0
   12.1610  -12.3960   23.4440 C   0  0  0  0  0  0  0  0  0  0  0  0
   10.7820  -12.3580   23.4010 C   0  0  0  0  0  0  0  0  0  0  0  0
   10.0840   -8.8870   22.1720 C   0  0  0  0  0  0  0  0  0  0  0  0
   10.8160   -7.9990   21.4080 N   0  0  0  0  0  0  0  0  0  0  0  0
   10.3030   -6.6840   21.0860 C   0  0  2  0  0  0  0  0  0  0  0  0
   10.7630   -6.3300   19.6900 C   0  0  0  0  0  0  0  0  0  0  0  0
   10.7360   -5.6160   22.0900 C   0  0  2  0  0  0  0  0  0  0  0  0
   10.0760   -4.3230   21.6910 C   0  0  0  0  0  0  0  0  0  0  0  0
    8.7240   -4.4890   21.6540 O   0  0  0  0  0  0  0  0  0  0  0  0
   12.2550   -5.4770   22.1080 C   0  0  0  0  0  0  0  0  0  0  0  0
   12.7660  -17.3020   23.3970 C   0  0  0  0  0  0  0  0  0  0  0  0
   13.2560  -17.6180   22.0350 N   0  3  0  0  0  0  0  0  0  0  0  0
   12.2610   -4.5370   24.4680 C   0  0  0  0  0  0  0  0  0  0  0  0
   12.8480   -3.7520   25.4450 C   0  0  0  0  0  0  0  0  0  0  0  0
   14.0170   -3.0870   25.1770 C   0  0  0  0  0  0  0  0  0  0  0  0
   14.5990   -3.1920   23.9420 C   0  0  0  0  0  0  0  0  0  0  0  0
   14.0100   -3.9670   22.9730 C   0  0  0  0  0  0  0  0  0  0  0  0
   12.8380   -4.6490   23.2210 C   0  0  0  0  0  0  0  0  0  0  0  0
   12.2500   -3.6190   26.7530 C   0  0  0  0  0  0  0  0  0  0  0  0
   13.0040   -3.2920   27.7910 N   0  0  0  0  0  0  0  0  0  0  0  0
   10.9710   -3.9120   26.9170 N   0  3  0  0  0  0  0  0  0  0  0  0
   10.6580   -3.2770   21.4380 O   0  0  0  0  0  0  0  0  0  0  0  0
    8.9140   -8.7380   22.4960 O   0  0  0  0  0  0  0  0  0  0  0  0
    8.0590   -3.3270   21.1690 C   0  0  0  0  0  0  0  0  0  0  0  0
   11.6440  -14.9420   22.8350 H   0  0  0  0  0  0  0  0  0  0  0  0
   14.3680  -12.5050   25.0010 H   0  0  0  0  0  0  0  0  0  0  0  0
   15.6090  -14.4940   25.6820 H   0  0  0  0  0  0  0  0  0  0  0  0
   14.8810  -16.7270   24.9490 H   0  0  0  0  0  0  0  0  0  0  0  0
    9.0240  -11.2200   22.9650 H   0  0  0  0  0  0  0  0  0  0  0  0
   12.7530   -9.2480   22.3550 H   0  0  0  0  0  0  0  0  0  0  0  0
   13.9250  -11.2600   23.0840 H   0  0  0  0  0  0  0  0  0  0  0  0
   10.2160  -13.2340   23.6950 H   0  0  0  0  0  0  0  0  0  0  0  0
   11.7300   -8.2670   21.0600 H   0  0  0  0  0  0  0  0  0  0  0  0
    9.2130   -6.7660   21.0920 H   0  0  0  0  0  0  0  0  0  0  0  0
   10.3530   -7.0400   18.9660 H   0  0  0  0  0  0  0  0  0  0  0  0
   10.4300   -5.3260   19.4140 H   0  0  0  0  0  0  0  0  0  0  0  0
   11.8540   -6.3660   19.6240 H   0  0  0  0  0  0  0  0  0  0  0  0
   10.3700   -5.8830   23.0840 H   0  0  0  0  0  0  0  0  0  0  0  0
   12.7020   -6.4720   22.1660 H   0  0  0  0  0  0  0  0  0  0  0  0
   12.5780   -5.0300   21.1640 H   0  0  0  0  0  0  0  0  0  0  0  0
   13.1490  -18.0790   24.0630 H   0  0  0  0  0  0  0  0  0  0  0  0
   11.6740  -17.3490   23.3650 H   0  0  0  0  0  0  0  0  0  0  0  0
   12.9170  -16.9290   21.3510 H   0  0  0  0  0  0  0  0  0  0  0  0
   14.2830  -17.6140   22.0010 H   0  0  0  0  0  0  0  0  0  0  0  0
   12.9350  -18.5460   21.7300 H   0  0  0  0  0  0  0  0  0  0  0  0
   11.3380   -5.0660   24.6710 H   0  0  0  0  0  0  0  0  0  0  0  0
   14.4840   -2.4750   25.9360 H   0  0  0  0  0  0  0  0  0  0  0  0
   15.5220   -2.6620   23.7340 H   0  0  0  0  0  0  0  0  0  0  0  0
   14.4850   -4.0380   22.0020 H   0  0  0  0  0  0  0  0  0  0  0  0
   12.6070   -3.2380   28.7260 H   0  0  0  0  0  0  0  0  0  0  0  0
   13.9870   -3.0810   27.6660 H   0  0  0  0  0  0  0  0  0  0  0  0
   10.3880   -4.1800   26.1290 H   0  0  0  0  0  0  0  0  0  0  0  0
   10.5470   -3.8570   27.8390 H   0  0  0  0  0  0  0  0  0  0  0  0
    8.1360   -2.5240   21.9060 H   0  0  0  0  0  0  0  0  0  0  0  0
    8.5150   -3.0060   20.2290 H   0  0  0  0  0  0  0  0  0  0  0  0
    7.0040   -3.5620   20.9990 H   0  0  0  0  0  0  0  0  0  0  0  0
  1  2  2  0  0  0  0
  2  3  1  0  0  0  0
  3  4  2  0  0  0  0
  4  5  1  0  0  0  0
  1  6  1  0  0  0  0
  5  6  2  0  0  0  0
  7  8  2  0  0  0  0
  8  9  1  0  0  0  0
  9 10  2  0  0  0  0
  2 11  1  0  0  0  0
 10 11  1  0  0  0  0
 11 12  2  0  0  0  0
  7 12  1  0  0  0  0
  8 13  1  0  0  0  0
 13 14  1  0  0  0  0
 14 15  1  0  0  0  0
 15 16  1  0  0  0  0
 15 17  1  0  0  0  0
 17 18  1  0  0  0  0
 18 19  1  0  0  0  0
 17 20  1  0  0  0  0
  6 21  1  0  0  0  0
 21 22  1  0  0  0  0
 23 24  2  0  0  0  0
 24 25  1  0  0  0  0
 25 26  2  0  0  0  0
 26 27  1  0  0  0  0
 20 28  1  0  0  0  0
 23 28  1  0  0  0  0
 27 28  2  0  0  0  0
 24 29  1  0  0  0  0
 29 30  1  0  0  0  0
 29 31  2  0  0  0  0
 18 32  2  0  0  0  0
 13 33  2  0  0  0  0
 19 34  1  0  0  0  0
  1 35  1  0  0  0  0
  3 36  1  0  0  0  0
  4 37  1  0  0  0  0
  5 38  1  0  0  0  0
  7 39  1  0  0  0  0
  9 40  1  0  0  0  0
 10 41  1  0  0  0  0
 12 42  1  0  0  0  0
 14 43  1  0  0  0  0
 15 44  1  0  0  0  0
 16 45  1  0  0  0  0
 16 46  1  0  0  0  0
 16 47  1  0  0  0  0
 17 48  1  0  0  0  0
 20 49  1  0  0  0  0
 20 50  1  0  0  0  0
 21 51  1  0  0  0  0
 21 52  1  0  0  0  0
 22 53  1  0  0  0  0
 22 54  1  0  0  0  0
 22 55  1  0  0  0  0
 23 56  1  0  0  0  0
 25 57  1  0  0  0  0
 26 58  1  0  0  0  0
 27 59  1  0  0  0  0
 30 60  1  0  0  0  0
 30 61  1  0  0  0  0
 31 62  1  0  0  0  0
 31 63  1  0  0  0  0
 34 64  1  0  0  0  0
 34 65  1  0  0  0  0
 34 66  1  0  0  0  0
M  CHG  2  22   1  31   1
M  END
$$$$
