1l7f_deposited_1
     RDKit          3D

 51 51  0  0  0  0  0  0  0  0999 V2000
   23.5610   17.4420   63.7990 C   0  0  0  0  0  0  0  0  0  0  0  0
   24.6810   16.6870   63.1140 C   0  0  2  0  0  0  0  0  0  0  0  0
   25.7320   17.7500   62.8960 C   0  0  1  0  0  0  0  0  0  0  0  0
   25.6750   18.5680   64.1720 C   0  0  1  0  0  0  0  0  0  0  0  0
   24.3030   18.3310   64.7740 C   0  0  1  0  0  0  0  0  0  0  0  0
   23.5900   19.6810   64.7960 C   0  0  0  0  0  0  0  0  0  0  0  0
   24.3220   20.7060   64.6880 O   0  0  0  0  0  0  0  0  0  0  0  0
   22.3360   19.6310   64.9260 O   0  0  0  0  0  0  0  0  0  0  0  0
   26.6320   18.0510   65.0840 O   0  0  0  0  0  0  0  0  0  0  0  0
   27.1110   17.1650   62.6310 C   0  0  1  0  0  0  0  0  0  0  0  0
   27.0890   16.3150   61.4630 N   0  0  0  0  0  0  0  0  0  0  0  0
   27.2750   14.9560   61.5820 C   0  0  0  0  0  0  0  0  0  0  0  0
   27.4760   14.3440   62.6200 O   0  0  0  0  0  0  0  0  0  0  0  0
   27.2070   14.2620   60.2590 C   0  0  0  0  0  0  0  0  0  0  0  0
   28.1320   18.2730   62.4250 C   0  0  0  0  0  0  0  0  0  0  0  0
   24.3130   16.0610   61.8510 N   0  0  0  0  0  0  0  0  0  0  0  0
   23.8530   14.7540   61.8120 C   0  0  0  0  0  0  0  0  0  0  0  0
   23.5170   14.1970   60.5910 N   0  0  0  0  0  0  0  0  0  0  0  0
   23.7140   13.9810   62.9520 N   0  0  0  0  0  0  0  0  0  0  0  0
   29.5010   17.6710   62.1960 C   0  0  0  0  0  0  0  0  0  0  0  0
   27.7840   19.0970   61.2050 C   0  0  0  0  0  0  0  0  0  0  0  0
   28.4380   20.4550   61.2910 C   0  0  0  0  0  0  0  0  0  0  0  0
   29.9600   16.9250   63.4240 C   0  0  0  0  0  0  0  0  0  0  0  0
   22.9870   18.0290   63.0780 H   0  0  0  0  0  0  0  0  0  0  0  0
   22.8900   16.7580   64.3240 H   0  0  0  0  0  0  0  0  0  0  0  0
   25.0760   15.9120   63.7750 H   0  0  0  0  0  0  0  0  0  0  0  0
   25.4300   18.3760   62.0530 H   0  0  0  0  0  0  0  0  0  0  0  0
   25.8760   19.6250   63.9840 H   0  0  0  0  0  0  0  0  0  0  0  0
   24.3530   17.9010   65.7780 H   0  0  0  0  0  0  0  0  0  0  0  0
   26.6350   18.6500   65.8500 H   0  0  0  0  0  0  0  0  0  0  0  0
   27.4100   16.5390   63.4750 H   0  0  0  0  0  0  0  0  0  0  0  0
   26.9330   16.7240   60.5480 H   0  0  0  0  0  0  0  0  0  0  0  0
   26.6610   14.8890   59.5450 H   0  0  0  0  0  0  0  0  0  0  0  0
   28.2250   14.0850   59.8930 H   0  0  0  0  0  0  0  0  0  0  0  0
   26.6870   13.3050   60.3830 H   0  0  0  0  0  0  0  0  0  0  0  0
   28.1610   18.9180   63.3060 H   0  0  0  0  0  0  0  0  0  0  0  0
   24.3890   16.5680   60.9730 H   0  0  0  0  0  0  0  0  0  0  0  0
   23.6050   14.7310   59.7300 H   0  0  0  0  0  0  0  0  0  0  0  0
   23.1770   13.2420   60.5270 H   0  0  0  0  0  0  0  0  0  0  0  0
   23.3730   13.0250   62.8970 H   0  0  0  0  0  0  0  0  0  0  0  0
   23.9470   14.3480   63.8690 H   0  0  0  0  0  0  0  0  0  0  0  0
   29.4680   16.9880   61.3440 H   0  0  0  0  0  0  0  0  0  0  0  0
   30.2180   18.4620   61.9630 H   0  0  0  0  0  0  0  0  0  0  0  0
   28.1270   18.5850   60.3030 H   0  0  0  0  0  0  0  0  0  0  0  0
   26.7020   19.2210   61.1290 H   0  0  0  0  0  0  0  0  0  0  0  0
   28.2040   20.9300   62.2480 H   0  0  0  0  0  0  0  0  0  0  0  0
   29.5240   20.3640   61.2020 H   0  0  0  0  0  0  0  0  0  0  0  0
   28.0760   21.1000   60.4850 H   0  0  0  0  0  0  0  0  0  0  0  0
   29.6260   15.8840   63.3820 H   0  0  0  0  0  0  0  0  0  0  0  0
   31.0520   16.9390   63.4900 H   0  0  0  0  0  0  0  0  0  0  0  0
   29.5500   17.3880   64.3270 H   0  0  0  0  0  0  0  0  0  0  0  0
  1  2  1  0
  1  5  1  0
  1 24  1  0
  1 25  1  0
  2  3  1  0
  2 16  1  0
  2 26  1  1
  3  4  1  0
  3 10  1  0
  3 27  1  6
  4  5  1  0
  4  9  1  0
  4 28  1  6
  5  6  1  0
  5 29  1  1
  6  7  1  0
  6  8  2  0
  9 30  1  0
 10 11  1  0
 10 15  1  0
 10 31  1  1
 11 12  1  0
 11 32  1  0
 12 13  2  0
 12 14  1  0
 14 33  1  0
 14 34  1  0
 14 35  1  0
 15 20  1  0
 15 21  1  0
 15 36  1  0
 16 17  1  0
 16 37  1  0
 17 18  2  0
 17 19  1  0
 18 38  1  0
 18 39  1  0
 19 40  1  0
 19 41  1  0
 20 23  1  0
 20 42  1  0
 20 43  1  0
 21 22  1  0
 21 44  1  0
 21 45  1  0
 22 46  1  0
 22 47  1  0
 22 48  1  0
 23 49  1  0
 23 50  1  0
 23 51  1  0
M  CHG  2   7  -1  18   1
M  END
